%chk=/oasis/projects/nsf/lhu120/cmw414/pent_y_stack/2_6A/dimer/dimer.chk
%nprocshared=24
%mem=110GB
#p b3lyp/6-311g(d,p) nosymm pop=full iop(3/33=1) punch=mo

c47

0 1
 C                 -7.65842916   -8.94206205    3.40901709
 C                 -7.63042916   -8.08606205    2.35301709
 C                 -7.00942916   -8.40406205    1.11801709
 C                 -6.99442916   -7.50506205    0.03301709
 C                 -6.33942916   -7.83806205   -1.18498291
 C                 -6.29042916   -6.97406205   -2.26698291
 C                 -5.74242916   -9.18206205   -1.31898291
 C                 -5.85742916  -10.02606205   -0.26098291
 C                 -6.37842916   -9.72206205    0.98401709
 C                 -6.50442916  -10.59106205    2.07501709
 C                 -7.01642916  -10.27406205    3.28001709
 H                 -8.14842916   -8.62306205    4.47601709
 H                 -8.03942916   -7.06206205    2.44601709
 H                 -7.42842916   -6.49206205    0.16901709
 H                 -6.75742916   -5.95606205   -2.12198291
 H                 -5.39942916  -11.03706205   -0.35298291
 H                 -6.04742916  -11.59706205    1.99601709
 H                 -7.02742916  -10.95306205    4.15701709
 C                 -5.69042916   -7.29306205   -3.50498291
 C                 -5.14242916   -9.50106205   -2.55698291
 C                 -5.09242916   -8.63806205   -3.63898291
 C                 -5.57542916   -6.45006205   -4.56298291
 H                 -4.67442916  -10.52006205   -2.70198291
 C                 -4.43842916   -8.97106205   -4.85698291
 C                 -5.05342916   -6.75406205   -5.80798291
 H                 -6.03342916   -5.43906205   -4.47098291
 C                 -4.42342916   -8.07206205   -5.94198291
 H                 -4.00442916   -9.98306205   -4.99298291
 C                 -4.92842916   -5.88506205   -6.89898291
 C                 -3.80242916   -8.38906205   -7.17698291
 C                 -4.41642916   -6.20206205   -8.10398291
 H                 -5.38542916   -4.87906205   -6.81998291
 C                 -3.77442916   -7.53406205   -8.23298291
 H                 -3.39342916   -9.41406205   -7.26998291
 H                 -4.40442916   -5.52306205   -8.98098291
 H                 -3.28442916   -7.85306205   -9.29998291
 C                 -5.55955519   -5.28557798    4.80563065
 C                 -5.53155519   -4.42957798    3.74963065
 C                 -4.91055519   -4.74757798    2.51463065
 C                 -4.89555519   -3.84857798    1.42963065
 C                 -4.24055519   -4.18157798    0.21163065
 C                 -4.19155519   -3.31757798   -0.87036935
 C                 -3.64355519   -5.52557798    0.07763065
 C                 -3.75855519   -6.36957798    1.13563065
 C                 -4.27955519   -6.06557798    2.38063065
 C                 -4.40555519   -6.93457798    3.47163065
 C                 -4.91755519   -6.61757798    4.67663065
 H                 -6.04955519   -4.96657798    5.87263065
 H                 -5.94055519   -3.40557798    3.84263065
 H                 -5.32955519   -2.83557798    1.56563065
 H                 -4.65855519   -2.29957798   -0.72536935
 H                 -3.30055519   -7.38057798    1.04363065
 H                 -3.94855519   -7.94057798    3.39263065
 H                 -4.92855519   -7.29657798    5.55363065
 C                 -3.59155519   -3.63657798   -2.10836935
 C                 -3.04355519   -5.84457798   -1.16036935
 C                 -2.99355519   -4.98157798   -2.24236935
 C                 -3.47655519   -2.79357798   -3.16636935
 H                 -2.57555519   -6.86357798   -1.30536935
 C                 -2.33955519   -5.31457798   -3.46036935
 C                 -2.95455519   -3.09757798   -4.41136935
 H                 -3.93455519   -1.78257798   -3.07436935
 C                 -2.32455519   -4.41557798   -4.54536935
 H                 -1.90555519   -6.32657798   -3.59636935
 C                 -2.82955519   -2.22857798   -5.50236935
 C                 -1.70355519   -4.73257798   -5.78036935
 C                 -2.31755519   -2.54557798   -6.70736935
 H                 -3.28655519   -1.22257798   -5.42336935
 C                 -1.67555519   -3.87757798   -6.83636935
 H                 -1.29455519   -5.75757798   -5.87336935
 H                 -2.30555519   -1.86657798   -7.58436935
 H                 -1.18555519   -4.19657798   -7.90336935

 1 2 2.0 11 1.0 12 1.0
 2 3 1.5 13 1.0
 3 4 1.5 9 1.0
 4 5 1.5 14 1.0
 5 6 2.0 7 1.0
 6 15 1.0 19 1.5
 7 8 2.0 20 1.5
 8 9 2.0 16 1.0
 9 10 1.5
 10 11 2.0 17 1.0
 11 18 1.0
 12
 13
 14
 15
 16
 17
 18
 19 21 1.0 22 2.0
 20 21 2.0 23 1.0
 21 24 1.5
 22 25 2.0 26 1.0
 23
 24 27 1.5 28 1.0
 25 27 1.0 29 1.5
 26
 27 30 1.5
 28
 29 31 2.0 32 1.0
 30 33 2.0 34 1.0
 31 33 1.0 35 1.0
 32
 33 36 1.0
 34
 35
 36
 37 38 2.0 47 1.0 48 1.0
 38 39 1.5 49 1.0
 39 40 1.5 45 1.0
 40 41 1.5 50 1.0
 41 42 2.0 43 1.0
 42 51 1.0 55 1.5
 43 44 2.0 56 1.5
 44 45 2.0 52 1.0
 45 46 1.5
 46 47 2.0 53 1.0
 47 54 1.0
 48
 49
 50
 51
 52
 53
 54
 55 57 1.0 58 2.0
 56 57 2.0 59 1.0
 57 60 1.5
 58 61 2.0 62 1.0
 59
 60 63 1.5 64 1.0
 61 63 1.0 65 1.5
 62
 63 66 1.5
 64
 65 67 2.0 68 1.0
 66 69 2.0 70 1.0
 67 69 1.0 71 1.0
 68
 69 72 1.0
 70
 71
 72


