%chk=/home/cmw414/pcpl_transfer_integral/rc_stack/3_2A/dimer/dimer.chk
%nprocshared=20
%mem=110GB
#p b3lyp/6-311g(d,p) nosymm pop=full iop(3/33=1) punch=mo

c47

2 1
 O                  1.86174994   -2.24091960   -0.82602720
 O                 -1.87857006    1.71316340   -0.82608020
 C                  3.69293194   -0.72418060   -1.06338220
 C                 -1.39817206   -0.65990260   -1.06510020
 C                  5.97006894   -1.68156260   -0.92872020
 C                  0.95462194   -1.22781960   -0.96532020
 C                  3.19252994   -2.01569860   -0.83083720
 C                  5.65208694    0.71735440   -1.43289920
 C                  1.38136894    0.13215140   -1.06508420
 C                 -3.20935006    1.48793240   -0.83089520
 C                 -2.81490206   -0.90983760   -1.22900320
 C                 -3.70974006    0.19640240   -1.06340020
 C                 -0.37665906   -1.64544160   -0.97542120
 C                  0.35984894    1.11769340   -0.97542620
 C                  5.10638894   -0.56466160   -1.13732320
 C                 -0.97143306    0.70006840   -0.96535120
 C                  5.39320194   -2.95953560   -0.66497620
 H                  6.04797794   -3.81058360   -0.50588120
 C                  4.74294294    1.79272240   -1.67548820
 H                  5.14623394    2.76335340   -1.94874220
 C                  3.37989094    1.63398240   -1.58001720
 H                  2.74799794    2.48220040   -1.79044720
 C                  4.02552694   -3.12921760   -0.62446320
 H                  3.57197294   -4.09717560   -0.44398820
 C                 -5.12319506    0.03686140   -1.13732220
 C                  2.79810394    0.38206540   -1.22901520
 C                  7.36796094   -1.48214760   -0.99857920
 H                  8.03037494   -2.32668460   -0.83338220
 C                  7.05069294    0.86854340   -1.50056920
 H                  7.46866794    1.84424740   -1.72991420
 C                 -0.64962006   -3.10144760   -0.78799720
 C                 -5.66887806   -1.24517560   -1.43283420
 C                  0.63278594    2.57369940   -0.78796920
 C                 -3.39667206   -2.16178560   -1.57991720
 H                 -2.76476406   -3.01000860   -1.79028920
 C                 -4.04236006    2.60144840   -0.62455320
 H                 -3.58881606    3.56941640   -0.44410720
 C                 -7.06748306   -1.39638560   -1.50048620
 H                 -7.48544806   -2.37210560   -1.72978220
 C                  7.89559394   -0.22310560   -1.27886720
 H                  8.97127494   -0.08985660   -1.33082220
 C                 -5.41003306    2.43174940   -0.66506120
 H                 -6.06481806    3.28279440   -0.50599120
 C                  1.18964094    3.02007240    0.41947180
 H                  1.42906794    2.29975340    1.19635180
 C                 -5.98688706    1.15376040   -0.92875720
 C                 -4.75972306   -2.32054860   -1.67536820
 H                 -5.16300406   -3.29120060   -1.94855920
 C                 -1.20663806   -3.54781560    0.41936880
 H                 -1.44616006   -2.82749560    1.19621880
 C                 -0.33597206   -4.03404460   -1.78711420
 H                  0.10326394   -3.69175860   -2.71923220
 C                 -7.38477706    0.95432440   -0.99859820
 H                 -8.04720006    1.79886040   -0.83343020
 C                 -1.46655306   -4.90612560    0.61634380
 H                 -1.90201306   -5.24083360    1.55312880
 C                 -1.16873606   -5.83040560   -0.39038520
 H                 -1.37526006   -6.88573160   -0.23951620
 C                  1.44952094    4.37838340    0.61648080
 H                  1.88486094    4.71309340    1.55332080
 C                  0.31924594    3.50629740   -1.78711920
 H                 -0.11987506    3.16400940   -2.71929020
 C                 -7.91239606   -0.30473560   -1.27882820
 H                 -8.98807506   -0.43800160   -1.33076920
 C                 -0.59998206   -5.39146560   -1.59128520
 H                 -0.36245006   -6.10465560   -2.37494620
 C                  1.15182794    5.30266140   -0.39028620
 H                  1.35832694    6.35798940   -0.23939020
 C                  0.58322494    4.86371840   -1.59125720
 H                  0.34578394    5.57690840   -2.37494520
 O                 12.24913308   -1.24197860    3.00929613
 O                  8.25269863    2.17129504    1.59407855
 C                 13.97819873    0.20377337    2.21544769
 C                  8.89495923   -0.08548630    2.23734701
 C                 16.31185356   -0.47950749    2.67069428
 C                 11.27856086   -0.41497063    2.51664744
 C                 13.56172163   -0.94371155    2.90994268
 C                 15.84215406    1.54007191    1.32503712
 C                 11.61477900    0.83964579    1.92126353
 C                  6.94026959    1.86949220    1.68448139
 C                  7.50106660   -0.47438109    2.18960008
 C                  6.53148018    0.55160717    1.94633772
 C                  9.97861501   -0.89727239    2.67267651
 C                 10.52815636    1.71714150    1.65277287
 C                 15.37881188    0.42139962    2.07510566
 C                  9.22787675    1.24222918    1.82757308
 C                 15.81767107   -1.60822329    3.38995483
 H                 16.52530431   -2.29486407    3.84394289
 C                 14.86710163    2.38687648    0.71347899
 H                 15.20887991    3.21503788    0.09966125
 C                 13.51636571    2.18130963    0.87309911
 H                 12.83259778    2.84808109    0.37217940
 C                 14.46396360   -1.84439602    3.50250128
 H                 14.07339422   -2.70750879    4.02948995
 C                 13.01408839    1.10840624    1.66402926
 C                 17.69419730   -0.22442921    2.51966600
 H                 18.40891318   -0.90226993    2.97687301
 C                 17.22840650    1.75125009    1.19372054
 H                 17.58376907    2.60121129    0.61875626
 C                  9.80080645   -2.19836571    3.38340092
 C                  4.67973987   -1.05547457    2.14930678
 C                 10.69975417    3.15558594    1.29080606
 C                  7.01039232   -1.80448729    2.32753853
 H                  7.70112021   -2.62544013    2.43698157
 C                  6.03120365    2.92138813    1.47587985
 H                  6.41580597    3.91674744    1.28465778
 C                  3.29572311   -1.31625284    2.15473898
 H                  2.94794073   -2.33426981    2.30302849
 C                 18.14080519    0.87729009    1.79241042
 H                 19.20584610    1.05548787    1.68527664
 C                  4.67883643    2.65551445    1.51305747
 H                  3.96594361    3.45872441    1.35506423
 C                 11.20543407    4.05028314    2.24529801
 H                 11.47975095    3.68288830    3.22992919
 C                  4.19337252    1.33353581    1.74163849
 C                  5.66280979   -2.08002738    2.30954949
 H                  5.33006108   -3.10841972    2.41500891
 C                  9.25511111   -2.20830762    4.67543957
 H                  8.95505758   -1.27164677    5.13626705
 C                 10.19270599   -3.40837313    2.79294023
 H                 10.62333428   -3.40222254    1.79621891
 C                  2.81333772    1.02725346    1.76270945
 H                  2.09316078    1.82613516    1.61284637
 C                  9.08361135   -3.41435276    5.35910903
 H                  8.65616510   -3.41150313    6.35735879
 C                  9.45928581   -4.62051441    4.75866375
 H                  9.32150192   -5.55864802    5.28785890
 C                 11.37039677    5.40067874    1.92815768
 H                 11.76680202    6.08430074    2.67296954
 C                 10.34094048    3.63345607    0.02224784
 H                  9.94119415    2.94425413   -0.71540699
 C                  2.37599545   -0.27984994    1.96851325
 H                  1.31267231   -0.49612983    1.97899725
 C                 10.01708033   -4.61429335    3.47525546
 H                 10.31478309   -5.54696957    3.00549582
 C                 11.02807567    5.86912165    0.65541724
 H                 11.16085433    6.91781916    0.40695805
 C                 10.51007099    4.98288595   -0.29567115
 H                 10.23832558    5.34130695   -1.28404046
 C                  5.13331073    0.27978509    1.94912865

 1 6 1.0 7 1.0
 2 10 1.0 16 1.0
 3 7 1.5 15 1.5 26 1.5
 4 11 1.0 13 1.5 16 1.5
 5 15 1.5 17 1.5 27 1.5
 6 9 1.5 13 1.5
 7 23 1.5
 8 15 1.5 19 1.5 29 1.5
 9 14 1.5 26 1.0
 10 12 1.5 36 1.5
 11 12 1.5 34 1.5
 12 25 1.5
 13 31 1.0
 14 16 1.5 33 1.0
 15
 16
 17 18 1.0 23 2.0
 18
 19 20 1.0 21 2.0
 20
 21 22 1.0 26 1.5
 22
 23 24 1.0
 24
 25 32 1.5 46 1.5
 26
 27 28 1.0 40 1.5
 28
 29 30 1.0 40 1.5
 30
 31 49 1.5 51 1.5
 32 38 1.5 47 1.5
 33 44 1.5 61 1.5
 34 35 1.0 47 2.0
 35
 36 37 1.0 42 2.0
 37
 38 39 1.0 63 1.5
 39
 40 41 1.0
 41
 42 43 1.0 46 1.5
 43
 44 45 1.0 59 1.5
 45
 46 53 1.5
 47 48 1.0
 48
 49 50 1.0 55 1.5
 50
 51 52 1.0 65 1.5
 52
 53 54 1.0 63 1.5
 54
 55 56 1.0 57 1.5
 56
 57 58 1.0 65 1.5
 58
 59 60 1.0 67 1.5
 60
 61 62 1.0 69 1.5
 62
 63 64 1.0
 64
 65 66 1.0
 66
 67 68 1.0 69 1.5
 68
 69 70 1.0
 70
 71 76 1.0 77 1.0
 72 80 1.0 86 1.0
 73 77 1.5 85 1.5 95 1.5
 74 81 1.0 83 1.5 86 1.5
 75 85 1.5 87 1.5 96 1.5
 76 79 1.5 83 1.5
 77 93 1.5
 78 85 1.5 89 1.5 98 1.5
 79 84 1.5 95 1.0
 80 82 1.5 105 1.5
 81 82 1.5 103 1.5
 82 140 1.5
 83 100 1.0
 84 86 1.5 102 1.0
 85
 86
 87 88 1.0 93 2.0
 88
 89 90 1.0 91 2.0
 90
 91 92 1.0 95 1.5
 92
 93 94 1.0
 94
 95
 96 97 1.0 109 1.5
 97
 98 99 1.0 109 1.5
 99
 100 118 1.5 120 1.5
 101 107 1.5 116 1.5 140 1.5
 102 113 1.5 130 1.5
 103 104 1.0 116 2.0
 104
 105 106 1.0 111 2.0
 106
 107 108 1.0 132 1.5
 108
 109 110 1.0
 110
 111 112 1.0 115 1.5
 112
 113 114 1.0 128 1.5
 114
 115 122 1.5 140 1.5
 116 117 1.0
 117
 118 119 1.0 124 1.5
 119
 120 121 1.0 134 1.5
 121
 122 123 1.0 132 1.5
 123
 124 125 1.0 126 1.5
 125
 126 127 1.0 134 1.5
 127
 128 129 1.0 136 1.5
 129
 130 131 1.0 138 1.5
 131
 132 133 1.0
 133
 134 135 1.0
 135
 136 137 1.0 138 1.5
 137
 138 139 1.0
 139
 140

