%chk=/oasis/projects/nsf/lhu120/cmw414/rc_slip_x_new/n_0_6A/dimer/dimer.chk
%mem=110GB
#p b3lyp/6-311g(d,p) nosymm pop=full iop(3/33=1) punch=mo

c47

2 1
 O                  1.86343256   -2.18814168   -0.63312396
 O                 -1.87688744    1.76594132   -0.63317696
 C                  3.69461456   -0.67140268   -0.87047896
 C                 -1.39648944   -0.60712468   -0.87219696
 C                  5.97175156   -1.62878468   -0.73581696
 C                  0.95630456   -1.17504168   -0.77241696
 C                  3.19421256   -1.96292068   -0.63793396
 C                  5.65376956    0.77013232   -1.23999596
 C                  1.38305156    0.18492932   -0.87218096
 C                 -3.20766744    1.54071032   -0.63799196
 C                 -2.81321944   -0.85705968   -1.03609996
 C                 -3.70805744    0.24918032   -0.87049696
 C                 -0.37497644   -1.59266368   -0.78251796
 C                  0.36153156    1.17047132   -0.78252296
 C                  5.10807156   -0.51188368   -0.94441996
 C                 -0.96975044    0.75284632   -0.77244796
 C                  5.39488456   -2.90675768   -0.47207296
 H                  6.04966056   -3.75780568   -0.31297796
 C                  4.74462556    1.84550032   -1.48258496
 H                  5.14791656    2.81613132   -1.75583896
 C                  3.38157356    1.68676032   -1.38711396
 H                  2.74968056    2.53497832   -1.59754396
 C                  4.02720956   -3.07643968   -0.43155996
 H                  3.57365556   -4.04439768   -0.25108496
 C                 -5.12151244    0.08963932   -0.94441896
 C                  2.79978656    0.43484332   -1.03611196
 C                  7.36964356   -1.42936968   -0.80567596
 H                  8.03205756   -2.27390668   -0.64047896
 C                  7.05237556    0.92132132   -1.30766596
 H                  7.47035056    1.89702532   -1.53701096
 C                 -0.64793744   -3.04866968   -0.59509396
 C                 -5.66719544   -1.19239768   -1.23993096
 C                  0.63446856    2.62647732   -0.59506596
 C                 -3.39498944   -2.10900768   -1.38701396
 H                 -2.76308144   -2.95723068   -1.59738596
 C                 -4.04067744    2.65422632   -0.43164996
 H                 -3.58713344    3.62219432   -0.25120396
 C                 -7.06580044   -1.34360768   -1.30758296
 H                 -7.48376544   -2.31932768   -1.53687896
 C                  7.89727656   -0.17032768   -1.08596396
 H                  8.97295756   -0.03707868   -1.13791896
 C                 -5.40835044    2.48452732   -0.47215796
 H                 -6.06313544    3.33557232   -0.31308796
 C                  1.19132356    3.07285032    0.61237504
 H                  1.43075056    2.35253132    1.38925504
 C                 -5.98520444    1.20653832   -0.73585396
 C                 -4.75804044   -2.26777068   -1.48246496
 H                 -5.16132144   -3.23842268   -1.75565596
 C                 -1.20495544   -3.49503768    0.61227204
 H                 -1.44447744   -2.77471768    1.38912204
 C                 -0.33428944   -3.98126668   -1.59421096
 H                  0.10494656   -3.63898068   -2.52632896
 C                 -7.38309444    1.00710232   -0.80569496
 H                 -8.04551744    1.85163832   -0.64052696
 C                 -1.46487044   -4.85334768    0.80924704
 H                 -1.90033044   -5.18805568    1.74603204
 C                 -1.16705344   -5.77762768   -0.19748196
 H                 -1.37357744   -6.83295368   -0.04661296
 C                  1.45120356    4.43116132    0.80938404
 H                  1.88654356    4.76587132    1.74622404
 C                  0.32092856    3.55907532   -1.59421596
 H                 -0.11819244    3.21678732   -2.52638696
 C                 -7.91071344   -0.25195768   -1.08592496
 H                 -8.98639244   -0.38522368   -1.13786596
 C                 -0.59829944   -5.33868768   -1.39838196
 H                 -0.36076744   -6.05187768   -2.18204296
 C                  1.15351056    5.35543932   -0.19738296
 H                  1.36000956    6.41076732   -0.04648696
 C                  0.58490756    4.91649632   -1.39835396
 H                  0.34746656    5.62968632   -2.18204196
 O                 11.66116794   -1.36144482    3.01427694
 O                  7.66473349    2.05182882    1.59905936
 C                 13.39023359    0.08430715    2.22042850
 C                  8.30699409   -0.20495252    2.24232782
 C                 15.72388842   -0.59897371    2.67567509
 C                 10.69059572   -0.53443685    2.52162825
 C                 12.97375649   -1.06317777    2.91492349
 C                 15.25418892    1.42060569    1.33001793
 C                 11.02681386    0.72017957    1.92624434
 C                  6.35230445    1.75002598    1.68946220
 C                  6.91310146   -0.59384731    2.19458089
 C                  5.94351504    0.43214095    1.95131853
 C                  9.39064987   -1.01673861    2.67765732
 C                  9.94019122    1.59767528    1.65775368
 C                 14.79084674    0.30193340    2.08008647
 C                  8.63991161    1.12276296    1.83255389
 C                 15.22970593   -1.72768951    3.39493564
 H                 15.93733917   -2.41433029    3.84892370
 C                 14.27913649    2.26741026    0.71845980
 H                 14.62091477    3.09557166    0.10464206
 C                 12.92840057    2.06184341    0.87807992
 H                 12.24463264    2.72861487    0.37716021
 C                 13.87599846   -1.96386224    3.50748209
 H                 13.48542908   -2.82697501    4.03447076
 C                 12.42612325    0.98894002    1.66901007
 C                 17.10623216   -0.34389543    2.52464681
 H                 17.82094804   -1.02173615    2.98185382
 C                 16.64044136    1.63178387    1.19870135
 H                 16.99580393    2.48174507    0.62373707
 C                  9.21284131   -2.31783193    3.38838173
 C                  4.09177473   -1.17494079    2.15428759
 C                 10.11178903    3.03611972    1.29578687
 C                  6.42242718   -1.92395351    2.33251934
 H                  7.11315507   -2.74490635    2.44196238
 C                  5.44323851    2.80192191    1.48086066
 H                  5.82784083    3.79728122    1.28963859
 C                  2.70775797   -1.43571906    2.15971979
 H                  2.35997559   -2.45373603    2.30800930
 C                 17.55284005    0.75782387    1.79739123
 H                 18.61788096    0.93602165    1.69025745
 C                  4.09087129    2.53604823    1.51803828
 H                  3.37797847    3.33925819    1.36004504
 C                 10.61746893    3.93081692    2.25027882
 H                 10.89178581    3.56342208    3.23491000
 C                  3.60540738    1.21406959    1.74661930
 C                  5.07484465   -2.19949360    2.31453030
 C                  8.66714597   -2.32777384    4.68042038
 H                  8.36709244   -1.39111299    5.14124786
 C                  9.60474085   -3.52783935    2.79792104
 H                 10.03536914   -3.52168876    1.80119972
 C                  2.22537258    0.90778724    1.76769026
 H                  1.50519564    1.70666894    1.61782718
 C                  8.49564621   -3.53381898    5.36408984
 H                  8.06819996   -3.53096935    6.36233960
 C                  8.87132067   -4.73998063    4.76364456
 H                  8.73353678   -5.67811424    5.29283971
 C                 10.78243163    5.28121252    1.93313849
 H                 11.17883688    5.96483452    2.67795035
 C                  9.75297534    3.51398985    0.02722865
 H                  9.35322901    2.82478791   -0.71042618
 C                  1.78803031   -0.39931616    1.97349406
 C                  9.42911519   -4.73375957    3.48023627
 H                  9.72681795   -5.66643579    3.01047663
 C                 10.44011053    5.74965543    0.66039805
 H                 10.57288919    6.79835294    0.41193886
 C                  9.92210585    4.86341973   -0.29069034
 H                  9.65036044    5.22184073   -1.27905965
 C                  4.54534559    0.16031887    1.95410946
 H                  4.74700362   -3.21271826    2.41843431
 H                  0.73954909   -0.61257720    1.98383172

 1 6 1.0 7 1.0
 2 10 1.0 16 1.0
 3 7 1.5 15 1.5 26 1.5
 4 11 1.0 13 1.5 16 1.5
 5 15 1.5 17 1.5 27 1.5
 6 9 1.5 13 1.5
 7 23 1.5
 8 15 1.5 19 1.5 29 1.5
 9 14 1.5 26 1.0
 10 12 1.5 36 1.5
 11 12 1.5 34 1.5
 12 25 1.5
 13 31 1.0
 14 16 1.5 33 1.0
 15
 16
 17 18 1.0 23 2.0
 18
 19 20 1.0 21 2.0
 20
 21 22 1.0 26 1.5
 22
 23 24 1.0
 24
 25 32 1.5 46 1.5
 26
 27 28 1.0 40 1.5
 28
 29 30 1.0 40 1.5
 30
 31 49 1.5 51 1.5
 32 38 1.5 47 1.5
 33 44 1.5 61 1.5
 34 35 1.0 47 2.0
 35
 36 37 1.0 42 2.0
 37
 38 39 1.0 63 1.5
 39
 40 41 1.0
 41
 42 43 1.0 46 1.5
 43
 44 45 1.0 59 1.5
 45
 46 53 1.5
 47 48 1.0
 48
 49 50 1.0 55 1.5
 50
 51 52 1.0 65 1.5
 52
 53 54 1.0 63 1.5
 54
 55 56 1.0 57 1.5
 56
 57 58 1.0 65 1.5
 58
 59 60 1.0 67 1.5
 60
 61 62 1.0 69 1.5
 62
 63 64 1.0
 64
 65 66 1.0
 66
 67 68 1.0 69 1.5
 68
 69 70 1.0
 70
 71 76 1.0 77 1.0
 72 80 1.0 86 1.0
 73 77 1.5 85 1.5 95 1.5
 74 81 1.0 83 1.5 86 1.5
 75 85 1.5 87 1.5 96 1.5
 76 79 1.5 83 1.5
 77 93 1.5
 78 85 1.5 89 1.5 98 1.5
 79 84 1.5 95 1.0
 80 82 1.5 105 1.5
 81 82 1.5 103 1.5
 82 140 1.5
 83 100 1.0
 84 86 1.5 102 1.0
 85
 86
 87 88 1.0 93 2.0
 88
 89 90 1.0 91 2.0
 90
 91 92 1.0 95 1.5
 92
 93 94 1.0
 94
 95
 96 97 1.0 109 1.5
 97
 98 99 1.0 109 1.5
 99
 100 118 1.5 120 1.5
 101 107 1.5 116 1.5 140 1.5
 102 113 1.5 130 1.5
 103 104 1.0 116 2.0
 104
 105 106 1.0 111 2.0
 106
 107 108 1.0 132 1.5
 108
 109 110 1.0
 110
 111 112 1.0 115 1.5
 112
 113 114 1.0 128 1.5
 114
 115 122 1.5 140 1.5
 116 117 1.0
 117
 118 119 1.0 124 1.5
 119
 120 121 1.0 134 1.5
 121
 122 123 1.0 132 1.5
 123
 124 125 1.0 126 1.5
 125
 126 127 1.0 134 1.5
 127
 128 129 1.0 136 1.5
 129
 130 131 1.0 138 1.5
 131
 132 133 1.0
 133
 134 135 1.0
 135
 136 137 1.0 138 1.5
 137
 138 139 1.0
 139
 140























































