%chk=/oasis/projects/nsf/lhu120/cmw414/rc_slip_y_90/n_0_4A/dimer/dimer.chk
%mem=110GB
#p b3lyp/6-311g(d,p) nosymm pop=full iop(3/33=1) punch=mo

c47

2 1
 O                  1.86343256   -2.18814168   -0.63312396
 O                 -1.87688744    1.76594132   -0.63317696
 C                  3.69461456   -0.67140268   -0.87047896
 C                 -1.39648944   -0.60712468   -0.87219696
 C                  5.97175156   -1.62878468   -0.73581696
 C                  0.95630456   -1.17504168   -0.77241696
 C                  3.19421256   -1.96292068   -0.63793396
 C                  5.65376956    0.77013232   -1.23999596
 C                  1.38305156    0.18492932   -0.87218096
 C                 -3.20766744    1.54071032   -0.63799196
 C                 -2.81321944   -0.85705968   -1.03609996
 C                 -3.70805744    0.24918032   -0.87049696
 C                 -0.37497644   -1.59266368   -0.78251796
 C                  0.36153156    1.17047132   -0.78252296
 C                  5.10807156   -0.51188368   -0.94441996
 C                 -0.96975044    0.75284632   -0.77244796
 C                  5.39488456   -2.90675768   -0.47207296
 H                  6.04966056   -3.75780568   -0.31297796
 C                  4.74462556    1.84550032   -1.48258496
 H                  5.14791656    2.81613132   -1.75583896
 C                  3.38157356    1.68676032   -1.38711396
 H                  2.74968056    2.53497832   -1.59754396
 C                  4.02720956   -3.07643968   -0.43155996
 H                  3.57365556   -4.04439768   -0.25108496
 C                 -5.12151244    0.08963932   -0.94441896
 C                  2.79978656    0.43484332   -1.03611196
 C                  7.36964356   -1.42936968   -0.80567596
 H                  8.03205756   -2.27390668   -0.64047896
 C                  7.05237556    0.92132132   -1.30766596
 H                  7.47035056    1.89702532   -1.53701096
 C                 -0.64793744   -3.04866968   -0.59509396
 C                 -5.66719544   -1.19239768   -1.23993096
 C                  0.63446856    2.62647732   -0.59506596
 C                 -3.39498944   -2.10900768   -1.38701396
 H                 -2.76308144   -2.95723068   -1.59738596
 C                 -4.04067744    2.65422632   -0.43164996
 H                 -3.58713344    3.62219432   -0.25120396
 C                 -7.06580044   -1.34360768   -1.30758296
 H                 -7.48376544   -2.31932768   -1.53687896
 C                  7.89727656   -0.17032768   -1.08596396
 H                  8.97295756   -0.03707868   -1.13791896
 C                 -5.40835044    2.48452732   -0.47215796
 H                 -6.06313544    3.33557232   -0.31308796
 C                  1.19132356    3.07285032    0.61237504
 H                  1.43075056    2.35253132    1.38925504
 C                 -5.98520444    1.20653832   -0.73585396
 C                 -4.75804044   -2.26777068   -1.48246496
 H                 -5.16132144   -3.23842268   -1.75565596
 C                 -1.20495544   -3.49503768    0.61227204
 H                 -1.44447744   -2.77471768    1.38912204
 C                 -0.33428944   -3.98126668   -1.59421096
 H                  0.10494656   -3.63898068   -2.52632896
 C                 -7.38309444    1.00710232   -0.80569496
 H                 -8.04551744    1.85163832   -0.64052696
 C                 -1.46487044   -4.85334768    0.80924704
 H                 -1.90033044   -5.18805568    1.74603204
 C                 -1.16705344   -5.77762768   -0.19748196
 H                 -1.37357744   -6.83295368   -0.04661296
 C                  1.45120356    4.43116132    0.80938404
 H                  1.88654356    4.76587132    1.74622404
 C                  0.32092856    3.55907532   -1.59421596
 H                 -0.11819244    3.21678732   -2.52638696
 C                 -7.91071344   -0.25195768   -1.08592496
 H                 -8.98639244   -0.38522368   -1.13786596
 C                 -0.59829944   -5.33868768   -1.39838196
 H                 -0.36076744   -6.05187768   -2.18204296
 C                  1.15351056    5.35543932   -0.19738296
 H                  1.36000956    6.41076732   -0.04648696
 C                  0.58490756    4.91649632   -1.39835396
 H                  0.34746656    5.62968632   -2.18204196
 O                 12.07809803   -0.88366717    2.96071700
 O                  8.08166358    2.52960647    1.54549942
 C                 13.80716368    0.56208480    2.16686856
 C                  8.72392418    0.27282513    2.18876788
 C                 16.14081851   -0.12119606    2.62211515
 C                 11.10752581   -0.05665920    2.46806831
 C                 13.39068658   -0.58540012    2.86136355
 C                 15.67111901    1.89838334    1.27645799
 C                 11.44374395    1.19795722    1.87268440
 C                  6.76923454    2.22780363    1.63590226
 C                  7.33003155   -0.11606966    2.14102095
 C                  6.36044513    0.90991860    1.89775859
 C                  9.80757996   -0.53896096    2.62409738
 C                 10.35712131    2.07545293    1.60419374
 C                 15.20777683    0.77971105    2.02652653
 C                  9.05684170    1.60054061    1.77899395
 C                 15.64663602   -1.24991186    3.34137570
 H                 16.35426926   -1.93655264    3.79536376
 C                 14.69606658    2.74518791    0.66489986
 H                 15.03784486    3.57334931    0.05108212
 C                 13.34533066    2.53962106    0.82451998
 H                 12.66156273    3.20639252    0.32360027
 C                 14.29292855   -1.48608459    3.45392215
 H                 13.90235917   -2.34919736    3.98091082
 C                 12.84305334    1.46671767    1.61545013
 C                 17.52316225    0.13388222    2.47108687
 H                 18.23787813   -0.54395850    2.92829388
 C                 17.05737145    2.10956152    1.14514141
 H                 17.41273402    2.95952272    0.57017713
 C                  9.62977140   -1.84005428    3.33482179
 C                  4.50870482   -0.69716314    2.10072765
 C                 10.52871912    3.51389737    1.24222693
 C                  6.83935727   -1.44617586    2.27895940
 H                  7.53008516   -2.26712870    2.38840244
 C                  5.86016860    3.27969956    1.42730072
 H                  6.24477092    4.27505887    1.23607865
 C                  3.12468806   -0.95794141    2.10615985
 H                  2.77690568   -1.97595838    2.25444936
 C                 17.96977014    1.23560152    1.74383129
 H                 19.03481105    1.41379930    1.63669751
 C                  4.50780138    3.01382588    1.46447834
 H                  3.79490856    3.81703584    1.30648510
 C                 11.03439902    4.40859457    2.19671888
 H                 11.30871590    4.04119973    3.18135006
 C                  4.02233747    1.69184724    1.69305936
 C                  5.49177474   -1.72171595    2.26097036
 C                  9.08407606   -1.84999619    4.62686044
 H                  8.78402253   -0.91333534    5.08768792
 C                 10.02167094   -3.05006170    2.74436110
 H                 10.45229923   -3.04391111    1.74763978
 C                  2.64230267    1.38556489    1.71413032
 H                  1.92212573    2.18444659    1.56426724
 C                  8.91257630   -3.05604133    5.31052990
 H                  8.48513005   -3.05319170    6.30877966
 C                  9.28825076   -4.26220298    4.71008462
 H                  9.15046687   -5.20033659    5.23927977
 C                 11.19936172    5.75899017    1.87957855
 H                 11.59576697    6.44261217    2.62439041
 C                 10.16990543    3.99176750   -0.02633129
 H                  9.77015910    3.30256556   -0.76398612
 C                  2.20496040    0.07846149    1.91993412
 C                  9.84604528   -4.25598192    3.42667633
 H                 10.14374804   -5.18865814    2.95691669
 C                 10.85704062    6.22743308    0.60683811
 H                 10.98981928    7.27613059    0.35837892
 C                 10.33903594    5.34119738   -0.34425028
 H                 10.06729053    5.69961838   -1.33261959
 C                  4.96227568    0.63809652    1.90054952
 H                  5.16393371   -2.73494061    2.36487437
 H                  1.15647918   -0.13479955    1.93027178

 1 6 1.0 7 1.0
 2 10 1.0 16 1.0
 3 7 1.5 15 1.5 26 1.5
 4 11 1.0 13 1.5 16 1.5
 5 15 1.5 17 1.5 27 1.5
 6 9 1.5 13 1.5
 7 23 1.5
 8 15 1.5 19 1.5 29 1.5
 9 14 1.5 26 1.0
 10 12 1.5 36 1.5
 11 12 1.5 34 1.5
 12 25 1.5
 13 31 1.0
 14 16 1.5 33 1.0
 15
 16
 17 18 1.0 23 2.0
 18
 19 20 1.0 21 2.0
 20
 21 22 1.0 26 1.5
 22
 23 24 1.0
 24
 25 32 1.5 46 1.5
 26
 27 28 1.0 40 1.5
 28
 29 30 1.0 40 1.5
 30
 31 49 1.5 51 1.5
 32 38 1.5 47 1.5
 33 44 1.5 61 1.5
 34 35 1.0 47 2.0
 35
 36 37 1.0 42 2.0
 37
 38 39 1.0 63 1.5
 39
 40 41 1.0
 41
 42 43 1.0 46 1.5
 43
 44 45 1.0 59 1.5
 45
 46 53 1.5
 47 48 1.0
 48
 49 50 1.0 55 1.5
 50
 51 52 1.0 65 1.5
 52
 53 54 1.0 63 1.5
 54
 55 56 1.0 57 1.5
 56
 57 58 1.0 65 1.5
 58
 59 60 1.0 67 1.5
 60
 61 62 1.0 69 1.5
 62
 63 64 1.0
 64
 65 66 1.0
 66
 67 68 1.0 69 1.5
 68
 69 70 1.0
 70
 71 76 1.0 77 1.0
 72 80 1.0 86 1.0
 73 77 1.5 85 1.5 95 1.5
 74 81 1.0 83 1.5 86 1.5
 75 85 1.5 87 1.5 96 1.5
 76 79 1.5 83 1.5
 77 93 1.5
 78 85 1.5 89 1.5 98 1.5
 79 84 1.5 95 1.0
 80 82 1.5 105 1.5
 81 82 1.5 103 1.5
 82 140 1.5
 83 100 1.0
 84 86 1.5 102 1.0
 85
 86
 87 88 1.0 93 2.0
 88
 89 90 1.0 91 2.0
 90
 91 92 1.0 95 1.5
 92
 93 94 1.0
 94
 95
 96 97 1.0 109 1.5
 97
 98 99 1.0 109 1.5
 99
 100 118 1.5 120 1.5
 101 107 1.5 116 1.5 140 1.5
 102 113 1.5 130 1.5
 103 104 1.0 116 2.0
 104
 105 106 1.0 111 2.0
 106
 107 108 1.0 132 1.5
 108
 109 110 1.0
 110
 111 112 1.0 115 1.5
 112
 113 114 1.0 128 1.5
 114
 115 122 1.5 140 1.5
 116 117 1.0
 117
 118 119 1.0 124 1.5
 119
 120 121 1.0 134 1.5
 121
 122 123 1.0 132 1.5
 123
 124 125 1.0 126 1.5
 125
 126 127 1.0 134 1.5
 127
 128 129 1.0 136 1.5
 129
 130 131 1.0 138 1.5
 131
 132 133 1.0
 133
 134 135 1.0
 135
 136 137 1.0 138 1.5
 137
 138 139 1.0
 139
 140























































