%chk=/oasis/projects/nsf/lhu120/cmw414/rc_slip_x_new/n_0_4A/dimer/dimer.chk
%mem=110GB
#p b3lyp/6-311g(d,p) nosymm pop=full iop(3/33=1) punch=mo

c47

2 1
 O                  1.86343256   -2.18814168   -0.63312396
 O                 -1.87688744    1.76594132   -0.63317696
 C                  3.69461456   -0.67140268   -0.87047896
 C                 -1.39648944   -0.60712468   -0.87219696
 C                  5.97175156   -1.62878468   -0.73581696
 C                  0.95630456   -1.17504168   -0.77241696
 C                  3.19421256   -1.96292068   -0.63793396
 C                  5.65376956    0.77013232   -1.23999596
 C                  1.38305156    0.18492932   -0.87218096
 C                 -3.20766744    1.54071032   -0.63799196
 C                 -2.81321944   -0.85705968   -1.03609996
 C                 -3.70805744    0.24918032   -0.87049696
 C                 -0.37497644   -1.59266368   -0.78251796
 C                  0.36153156    1.17047132   -0.78252296
 C                  5.10807156   -0.51188368   -0.94441996
 C                 -0.96975044    0.75284632   -0.77244796
 C                  5.39488456   -2.90675768   -0.47207296
 H                  6.04966056   -3.75780568   -0.31297796
 C                  4.74462556    1.84550032   -1.48258496
 H                  5.14791656    2.81613132   -1.75583896
 C                  3.38157356    1.68676032   -1.38711396
 H                  2.74968056    2.53497832   -1.59754396
 C                  4.02720956   -3.07643968   -0.43155996
 H                  3.57365556   -4.04439768   -0.25108496
 C                 -5.12151244    0.08963932   -0.94441896
 C                  2.79978656    0.43484332   -1.03611196
 C                  7.36964356   -1.42936968   -0.80567596
 H                  8.03205756   -2.27390668   -0.64047896
 C                  7.05237556    0.92132132   -1.30766596
 H                  7.47035056    1.89702532   -1.53701096
 C                 -0.64793744   -3.04866968   -0.59509396
 C                 -5.66719544   -1.19239768   -1.23993096
 C                  0.63446856    2.62647732   -0.59506596
 C                 -3.39498944   -2.10900768   -1.38701396
 H                 -2.76308144   -2.95723068   -1.59738596
 C                 -4.04067744    2.65422632   -0.43164996
 H                 -3.58713344    3.62219432   -0.25120396
 C                 -7.06580044   -1.34360768   -1.30758296
 H                 -7.48376544   -2.31932768   -1.53687896
 C                  7.89727656   -0.17032768   -1.08596396
 H                  8.97295756   -0.03707868   -1.13791896
 C                 -5.40835044    2.48452732   -0.47215796
 H                 -6.06313544    3.33557232   -0.31308796
 C                  1.19132356    3.07285032    0.61237504
 H                  1.43075056    2.35253132    1.38925504
 C                 -5.98520444    1.20653832   -0.73585396
 C                 -4.75804044   -2.26777068   -1.48246496
 H                 -5.16132144   -3.23842268   -1.75565596
 C                 -1.20495544   -3.49503768    0.61227204
 H                 -1.44447744   -2.77471768    1.38912204
 C                 -0.33428944   -3.98126668   -1.59421096
 H                  0.10494656   -3.63898068   -2.52632896
 C                 -7.38309444    1.00710232   -0.80569496
 H                 -8.04551744    1.85163832   -0.64052696
 C                 -1.46487044   -4.85334768    0.80924704
 H                 -1.90033044   -5.18805568    1.74603204
 C                 -1.16705344   -5.77762768   -0.19748196
 H                 -1.37357744   -6.83295368   -0.04661296
 C                  1.45120356    4.43116132    0.80938404
 H                  1.88654356    4.76587132    1.74622404
 C                  0.32092856    3.55907532   -1.59421596
 H                 -0.11819244    3.21678732   -2.52638696
 C                 -7.91071344   -0.25195768   -1.08592496
 H                 -8.98639244   -0.38522368   -1.13786596
 C                 -0.59829944   -5.33868768   -1.39838196
 H                 -0.36076744   -6.05187768   -2.18204296
 C                  1.15351056    5.35543932   -0.19738296
 H                  1.36000956    6.41076732   -0.04648696
 C                  0.58490756    4.91649632   -1.39835396
 H                  0.34746656    5.62968632   -2.18204196
 O                 11.85715632   -1.32162274    3.01261667
 O                  7.86072187    2.09165090    1.59739909
 C                 13.58622197    0.12412923    2.21876823
 C                  8.50298247   -0.16513044    2.24066755
 C                 15.91987680   -0.55915163    2.67401482
 C                 10.88658410   -0.49461477    2.51996798
 C                 13.16974487   -1.02335569    2.91326322
 C                 15.45017730    1.46042777    1.32835766
 C                 11.22280224    0.76000165    1.92458407
 C                  6.54829283    1.78984806    1.68780193
 C                  7.10908984   -0.55402523    2.19292062
 C                  6.13950342    0.47196303    1.94965826
 C                  9.58663825   -0.97691653    2.67599705
 C                 10.13617960    1.63749736    1.65609341
 C                 14.98683512    0.34175548    2.07842620
 C                  8.83589999    1.16258504    1.83089362
 C                 15.42569431   -1.68786743    3.39327537
 H                 16.13332755   -2.37450821    3.84726343
 C                 14.47512487    2.30723234    0.71679953
 H                 14.81690315    3.13539374    0.10298179
 C                 13.12438895    2.10166549    0.87641965
 H                 12.44062102    2.76843695    0.37549994
 C                 14.07198684   -1.92404016    3.50582182
 H                 13.68141746   -2.78715293    4.03281049
 C                 12.62211163    1.02876210    1.66734980
 C                 17.30222054   -0.30407335    2.52298654
 H                 18.01693642   -0.98191407    2.98019355
 C                 16.83642974    1.67160595    1.19704108
 H                 17.19179231    2.52156715    0.62207680
 C                  9.40882969   -2.27800985    3.38672146
 C                  4.28776311   -1.13511871    2.15262732
 C                 10.30777741    3.07594180    1.29412660
 C                  6.61841556   -1.88413143    2.33085907
 H                  7.30914345   -2.70508427    2.44030211
 C                  5.63922689    2.84174399    1.47920039
 H                  6.02382921    3.83710330    1.28797832
 C                  2.90374635   -1.39589698    2.15805952
 H                  2.55596397   -2.41391395    2.30634903
 C                 17.74882843    0.79764595    1.79573096
 H                 18.81386934    0.97584373    1.68859718
 C                  4.28685967    2.57587031    1.51637801
 H                  3.57396685    3.37908027    1.35838477
 C                 10.81345731    3.97063900    2.24861855
 H                 11.08777419    3.60324416    3.23324973
 C                  3.80139576    1.25389167    1.74495903
 C                  5.27083303   -2.15967152    2.31287003
 C                  8.86313435   -2.28795176    4.67876011
 H                  8.56308082   -1.35129091    5.13958759
 C                  9.80072923   -3.48801727    2.79626077
 H                 10.23135752   -3.48186668    1.79953945
 C                  2.42136096    0.94760932    1.76602999
 H                  1.70118402    1.74649102    1.61616691
 C                  8.69163459   -3.49399690    5.36242957
 H                  8.26418834   -3.49114727    6.36067933
 C                  9.06730905   -4.70015855    4.76198429
 H                  8.92952516   -5.63829216    5.29117944
 C                 10.97842001    5.32103460    1.93147822
 H                 11.37482526    6.00465660    2.67629008
 C                  9.94896372    3.55381193    0.02556838
 H                  9.54921739    2.86460999   -0.71208645
 C                  1.98401869   -0.35949408    1.97183379
 C                  9.62510357   -4.69393749    3.47857600
 H                  9.92280633   -5.62661371    3.00881636
 C                 10.63609891    5.78947751    0.65873778
 H                 10.76887757    6.83817502    0.41027859
 C                 10.11809423    4.90324181   -0.29235061
 H                  9.84634882    5.26166281   -1.28071992
 C                  4.74133397    0.20014095    1.95244919
 H                  4.94299200   -3.17289618    2.41677404
 H                  0.93553747   -0.57275512    1.98217145

 1 6 1.0 7 1.0
 2 10 1.0 16 1.0
 3 7 1.5 15 1.5 26 1.5
 4 11 1.0 13 1.5 16 1.5
 5 15 1.5 17 1.5 27 1.5
 6 9 1.5 13 1.5
 7 23 1.5
 8 15 1.5 19 1.5 29 1.5
 9 14 1.5 26 1.0
 10 12 1.5 36 1.5
 11 12 1.5 34 1.5
 12 25 1.5
 13 31 1.0
 14 16 1.5 33 1.0
 15
 16
 17 18 1.0 23 2.0
 18
 19 20 1.0 21 2.0
 20
 21 22 1.0 26 1.5
 22
 23 24 1.0
 24
 25 32 1.5 46 1.5
 26
 27 28 1.0 40 1.5
 28
 29 30 1.0 40 1.5
 30
 31 49 1.5 51 1.5
 32 38 1.5 47 1.5
 33 44 1.5 61 1.5
 34 35 1.0 47 2.0
 35
 36 37 1.0 42 2.0
 37
 38 39 1.0 63 1.5
 39
 40 41 1.0
 41
 42 43 1.0 46 1.5
 43
 44 45 1.0 59 1.5
 45
 46 53 1.5
 47 48 1.0
 48
 49 50 1.0 55 1.5
 50
 51 52 1.0 65 1.5
 52
 53 54 1.0 63 1.5
 54
 55 56 1.0 57 1.5
 56
 57 58 1.0 65 1.5
 58
 59 60 1.0 67 1.5
 60
 61 62 1.0 69 1.5
 62
 63 64 1.0
 64
 65 66 1.0
 66
 67 68 1.0 69 1.5
 68
 69 70 1.0
 70
 71 76 1.0 77 1.0
 72 80 1.0 86 1.0
 73 77 1.5 85 1.5 95 1.5
 74 81 1.0 83 1.5 86 1.5
 75 85 1.5 87 1.5 96 1.5
 76 79 1.5 83 1.5
 77 93 1.5
 78 85 1.5 89 1.5 98 1.5
 79 84 1.5 95 1.0
 80 82 1.5 105 1.5
 81 82 1.5 103 1.5
 82 140 1.5
 83 100 1.0
 84 86 1.5 102 1.0
 85
 86
 87 88 1.0 93 2.0
 88
 89 90 1.0 91 2.0
 90
 91 92 1.0 95 1.5
 92
 93 94 1.0
 94
 95
 96 97 1.0 109 1.5
 97
 98 99 1.0 109 1.5
 99
 100 118 1.5 120 1.5
 101 107 1.5 116 1.5 140 1.5
 102 113 1.5 130 1.5
 103 104 1.0 116 2.0
 104
 105 106 1.0 111 2.0
 106
 107 108 1.0 132 1.5
 108
 109 110 1.0
 110
 111 112 1.0 115 1.5
 112
 113 114 1.0 128 1.5
 114
 115 122 1.5 140 1.5
 116 117 1.0
 117
 118 119 1.0 124 1.5
 119
 120 121 1.0 134 1.5
 121
 122 123 1.0 132 1.5
 123
 124 125 1.0 126 1.5
 125
 126 127 1.0 134 1.5
 127
 128 129 1.0 136 1.5
 129
 130 131 1.0 138 1.5
 131
 132 133 1.0
 133
 134 135 1.0
 135
 136 137 1.0 138 1.5
 137
 138 139 1.0
 139
 140





















































