%chk=/home/cmw414/pcpl_transfer_integral/rc_stack/4_3A/dimer/dimer.chk
%nprocshared=20
%mem=110GB
#p b3lyp/6-311g(d,p) nosymm pop=full iop(3/33=1) punch=mo

c47

2 1
 O                  1.85249556   -2.53119816   -1.88699502
 O                 -1.88782444    1.42288484   -1.88704802
 C                  3.68367756   -1.01445916   -2.12435002
 C                 -1.40742644   -0.95018116   -2.12606802
 C                  5.96081456   -1.97184116   -1.98968802
 C                  0.94536756   -1.51809816   -2.02628802
 C                  3.18327556   -2.30597716   -1.89180502
 C                  5.64283256    0.42707584   -2.49386702
 C                  1.37211456   -0.15812716   -2.12605202
 C                 -3.21860444    1.19765384   -1.89186302
 C                 -2.82415644   -1.20011616   -2.28997102
 C                 -3.71899444   -0.09387616   -2.12436802
 C                 -0.38591344   -1.93572016   -2.03638902
 C                  0.35059456    0.82741484   -2.03639402
 C                  5.09713456   -0.85494016   -2.19829102
 C                 -0.98068744    0.40978984   -2.02631902
 C                  5.38394756   -3.24981416   -1.72594402
 H                  6.03872356   -4.10086216   -1.56684902
 C                  4.73368856    1.50244384   -2.73645602
 H                  5.13697956    2.47307484   -3.00971002
 C                  3.37063656    1.34370384   -2.64098502
 H                  2.73874356    2.19192184   -2.85141502
 C                  4.01627256   -3.41949616   -1.68543102
 H                  3.56271856   -4.38745416   -1.50495602
 C                 -5.13244944   -0.25341716   -2.19829002
 C                  2.78884956    0.09178684   -2.28998302
 C                  7.35870656   -1.77242616   -2.05954702
 H                  8.02112056   -2.61696316   -1.89435002
 C                  7.04143856    0.57826484   -2.56153702
 H                  7.45941356    1.55396884   -2.79088202
 C                 -0.65887444   -3.39172616   -1.84896502
 C                 -5.67813244   -1.53545416   -2.49380202
 C                  0.62353156    2.28342084   -1.84893702
 C                 -3.40592644   -2.45206416   -2.64088502
 H                 -2.77401844   -3.30028716   -2.85125702
 C                 -4.05161444    2.31116984   -1.68552102
 H                 -3.59807044    3.27913784   -1.50507502
 C                 -7.07673744   -1.68666416   -2.56145402
 H                 -7.49470244   -2.66238416   -2.79075002
 C                  7.88633956   -0.51338416   -2.33983502
 H                  8.96202056   -0.38013516   -2.39179002
 C                 -5.41928744    2.14147084   -1.72602902
 H                 -6.07407244    2.99251584   -1.56695902
 C                  1.18038656    2.72979384   -0.64149602
 H                  1.41981356    2.00947484    0.13538398
 C                 -5.99614144    0.86348184   -1.98972502
 C                 -4.76897744   -2.61082716   -2.73633602
 H                 -5.17225844   -3.58147916   -3.00952702
 C                 -1.21589244   -3.83809416   -0.64159902
 H                 -1.45541444   -3.11777416    0.13525098
 C                 -0.34522644   -4.32432316   -2.84808202
 H                  0.09400956   -3.98203716   -3.78020002
 C                 -7.39403144    0.66404584   -2.05956602
 H                 -8.05645444    1.50858184   -1.89439802
 C                 -1.47580744   -5.19640416   -0.44462402
 H                 -1.91126744   -5.53111216    0.49216098
 C                 -1.17799044   -6.12068416   -1.45135302
 H                 -1.38451444   -7.17601016   -1.30048402
 C                  1.44026656    4.08810484   -0.44448702
 H                  1.87560656    4.42281484    0.49235298
 C                  0.30999156    3.21601884   -2.84808702
 H                 -0.12912944    2.87373084   -3.78025802
 C                 -7.92165044   -0.59501416   -2.33979602
 H                 -8.99732944   -0.72828016   -2.39173702
 C                 -0.60923644   -5.68174416   -2.65225302
 H                 -0.37170444   -6.39493416   -3.43591402
 C                  1.14257356    5.01238284   -1.45125402
 H                  1.34907256    6.06771084   -1.30035802
 C                  0.57397056    4.57343984   -2.65222502
 H                  0.33652956    5.28662984   -3.43591302
 O                 12.24913308   -1.24197860    3.00929613
 O                  8.25269863    2.17129504    1.59407855
 C                 13.97819873    0.20377337    2.21544769
 C                  8.89495923   -0.08548630    2.23734701
 C                 16.31185356   -0.47950749    2.67069428
 C                 11.27856086   -0.41497063    2.51664744
 C                 13.56172163   -0.94371155    2.90994268
 C                 15.84215406    1.54007191    1.32503712
 C                 11.61477900    0.83964579    1.92126353
 C                  6.94026959    1.86949220    1.68448139
 C                  7.50106660   -0.47438109    2.18960008
 C                  6.53148018    0.55160717    1.94633772
 C                  9.97861501   -0.89727239    2.67267651
 C                 10.52815636    1.71714150    1.65277287
 C                 15.37881188    0.42139962    2.07510566
 C                  9.22787675    1.24222918    1.82757308
 C                 15.81767107   -1.60822329    3.38995483
 H                 16.52530431   -2.29486407    3.84394289
 C                 14.86710163    2.38687648    0.71347899
 H                 15.20887991    3.21503788    0.09966125
 C                 13.51636571    2.18130963    0.87309911
 H                 12.83259778    2.84808109    0.37217940
 C                 14.46396360   -1.84439602    3.50250128
 H                 14.07339422   -2.70750879    4.02948995
 C                 13.01408839    1.10840624    1.66402926
 C                 17.69419730   -0.22442921    2.51966600
 H                 18.40891318   -0.90226993    2.97687301
 C                 17.22840650    1.75125009    1.19372054
 H                 17.58376907    2.60121129    0.61875626
 C                  9.80080645   -2.19836571    3.38340092
 C                  4.67973987   -1.05547457    2.14930678
 C                 10.69975417    3.15558594    1.29080606
 C                  7.01039232   -1.80448729    2.32753853
 H                  7.70112021   -2.62544013    2.43698157
 C                  6.03120365    2.92138813    1.47587985
 H                  6.41580597    3.91674744    1.28465778
 C                  3.29572311   -1.31625284    2.15473898
 H                  2.94794073   -2.33426981    2.30302849
 C                 18.14080519    0.87729009    1.79241042
 H                 19.20584610    1.05548787    1.68527664
 C                  4.67883643    2.65551445    1.51305747
 H                  3.96594361    3.45872441    1.35506423
 C                 11.20543407    4.05028314    2.24529801
 H                 11.47975095    3.68288830    3.22992919
 C                  4.19337252    1.33353581    1.74163849
 C                  5.66280979   -2.08002738    2.30954949
 H                  5.33006108   -3.10841972    2.41500891
 C                  9.25511111   -2.20830762    4.67543957
 H                  8.95505758   -1.27164677    5.13626705
 C                 10.19270599   -3.40837313    2.79294023
 H                 10.62333428   -3.40222254    1.79621891
 C                  2.81333772    1.02725346    1.76270945
 H                  2.09316078    1.82613516    1.61284637
 C                  9.08361135   -3.41435276    5.35910903
 H                  8.65616510   -3.41150313    6.35735879
 C                  9.45928581   -4.62051441    4.75866375
 H                  9.32150192   -5.55864802    5.28785890
 C                 11.37039677    5.40067874    1.92815768
 H                 11.76680202    6.08430074    2.67296954
 C                 10.34094048    3.63345607    0.02224784
 H                  9.94119415    2.94425413   -0.71540699
 C                  2.37599545   -0.27984994    1.96851325
 H                  1.31267231   -0.49612983    1.97899725
 C                 10.01708033   -4.61429335    3.47525546
 H                 10.31478309   -5.54696957    3.00549582
 C                 11.02807567    5.86912165    0.65541724
 H                 11.16085433    6.91781916    0.40695805
 C                 10.51007099    4.98288595   -0.29567115
 H                 10.23832558    5.34130695   -1.28404046
 C                  5.13331073    0.27978509    1.94912865

 1 6 1.0 7 1.0
 2 10 1.0 16 1.0
 3 7 1.5 15 1.5 26 1.5
 4 11 1.0 13 1.5 16 1.5
 5 15 1.5 17 1.5 27 1.5
 6 9 1.5 13 1.5
 7 23 1.5
 8 15 1.5 19 1.5 29 1.5
 9 14 1.5 26 1.0
 10 12 1.5 36 1.5
 11 12 1.5 34 1.5
 12 25 1.5
 13 31 1.0
 14 16 1.5 33 1.0
 15
 16
 17 18 1.0 23 2.0
 18
 19 20 1.0 21 2.0
 20
 21 22 1.0 26 1.5
 22
 23 24 1.0
 24
 25 32 1.5 46 1.5
 26
 27 28 1.0 40 1.5
 28
 29 30 1.0 40 1.5
 30
 31 49 1.5 51 1.5
 32 38 1.5 47 1.5
 33 44 1.5 61 1.5
 34 35 1.0 47 2.0
 35
 36 37 1.0 42 2.0
 37
 38 39 1.0 63 1.5
 39
 40 41 1.0
 41
 42 43 1.0 46 1.5
 43
 44 45 1.0 59 1.5
 45
 46 53 1.5
 47 48 1.0
 48
 49 50 1.0 55 1.5
 50
 51 52 1.0 65 1.5
 52
 53 54 1.0 63 1.5
 54
 55 56 1.0 57 1.5
 56
 57 58 1.0 65 1.5
 58
 59 60 1.0 67 1.5
 60
 61 62 1.0 69 1.5
 62
 63 64 1.0
 64
 65 66 1.0
 66
 67 68 1.0 69 1.5
 68
 69 70 1.0
 70
 71 76 1.0 77 1.0
 72 80 1.0 86 1.0
 73 77 1.5 85 1.5 95 1.5
 74 81 1.0 83 1.5 86 1.5
 75 85 1.5 87 1.5 96 1.5
 76 79 1.5 83 1.5
 77 93 1.5
 78 85 1.5 89 1.5 98 1.5
 79 84 1.5 95 1.0
 80 82 1.5 105 1.5
 81 82 1.5 103 1.5
 82 140 1.5
 83 100 1.0
 84 86 1.5 102 1.0
 85
 86
 87 88 1.0 93 2.0
 88
 89 90 1.0 91 2.0
 90
 91 92 1.0 95 1.5
 92
 93 94 1.0
 94
 95
 96 97 1.0 109 1.5
 97
 98 99 1.0 109 1.5
 99
 100 118 1.5 120 1.5
 101 107 1.5 116 1.5 140 1.5
 102 113 1.5 130 1.5
 103 104 1.0 116 2.0
 104
 105 106 1.0 111 2.0
 106
 107 108 1.0 132 1.5
 108
 109 110 1.0
 110
 111 112 1.0 115 1.5
 112
 113 114 1.0 128 1.5
 114
 115 122 1.5 140 1.5
 116 117 1.0
 117
 118 119 1.0 124 1.5
 119
 120 121 1.0 134 1.5
 121
 122 123 1.0 132 1.5
 123
 124 125 1.0 126 1.5
 125
 126 127 1.0 134 1.5
 127
 128 129 1.0 136 1.5
 129
 130 131 1.0 138 1.5
 131
 132 133 1.0
 133
 134 135 1.0
 135
 136 137 1.0 138 1.5
 137
 138 139 1.0
 139
 140

