%chk=/oasis/projects/nsf/lhu120/cmw414/rc_slip_y_90/2_0A/dimer/dimer.chk
%mem=110GB
#p b3lyp/6-311g(d,p) nosymm pop=full iop(3/33=1) punch=mo

c47

2 1
 O                  1.86343256   -2.18814168   -0.63312396
 O                 -1.87688744    1.76594132   -0.63317696
 C                  3.69461456   -0.67140268   -0.87047896
 C                 -1.39648944   -0.60712468   -0.87219696
 C                  5.97175156   -1.62878468   -0.73581696
 C                  0.95630456   -1.17504168   -0.77241696
 C                  3.19421256   -1.96292068   -0.63793396
 C                  5.65376956    0.77013232   -1.23999596
 C                  1.38305156    0.18492932   -0.87218096
 C                 -3.20766744    1.54071032   -0.63799196
 C                 -2.81321944   -0.85705968   -1.03609996
 C                 -3.70805744    0.24918032   -0.87049696
 C                 -0.37497644   -1.59266368   -0.78251796
 C                  0.36153156    1.17047132   -0.78252296
 C                  5.10807156   -0.51188368   -0.94441996
 C                 -0.96975044    0.75284632   -0.77244796
 C                  5.39488456   -2.90675768   -0.47207296
 H                  6.04966056   -3.75780568   -0.31297796
 C                  4.74462556    1.84550032   -1.48258496
 H                  5.14791656    2.81613132   -1.75583896
 C                  3.38157356    1.68676032   -1.38711396
 H                  2.74968056    2.53497832   -1.59754396
 C                  4.02720956   -3.07643968   -0.43155996
 H                  3.57365556   -4.04439768   -0.25108496
 C                 -5.12151244    0.08963932   -0.94441896
 C                  2.79978656    0.43484332   -1.03611196
 C                  7.36964356   -1.42936968   -0.80567596
 H                  8.03205756   -2.27390668   -0.64047896
 C                  7.05237556    0.92132132   -1.30766596
 H                  7.47035056    1.89702532   -1.53701096
 C                 -0.64793744   -3.04866968   -0.59509396
 C                 -5.66719544   -1.19239768   -1.23993096
 C                  0.63446856    2.62647732   -0.59506596
 C                 -3.39498944   -2.10900768   -1.38701396
 H                 -2.76308144   -2.95723068   -1.59738596
 C                 -4.04067744    2.65422632   -0.43164996
 H                 -3.58713344    3.62219432   -0.25120396
 C                 -7.06580044   -1.34360768   -1.30758296
 H                 -7.48376544   -2.31932768   -1.53687896
 C                  7.89727656   -0.17032768   -1.08596396
 H                  8.97295756   -0.03707868   -1.13791896
 C                 -5.40835044    2.48452732   -0.47215796
 H                 -6.06313544    3.33557232   -0.31308796
 C                  1.19132356    3.07285032    0.61237504
 H                  1.43075056    2.35253132    1.38925504
 C                 -5.98520444    1.20653832   -0.73585396
 C                 -4.75804044   -2.26777068   -1.48246496
 H                 -5.16132144   -3.23842268   -1.75565596
 C                 -1.20495544   -3.49503768    0.61227204
 H                 -1.44447744   -2.77471768    1.38912204
 C                 -0.33428944   -3.98126668   -1.59421096
 H                  0.10494656   -3.63898068   -2.52632896
 C                 -7.38309444    1.00710232   -0.80569496
 H                 -8.04551744    1.85163832   -0.64052696
 C                 -1.46487044   -4.85334768    0.80924704
 H                 -1.90033044   -5.18805568    1.74603204
 C                 -1.16705344   -5.77762768   -0.19748196
 H                 -1.37357744   -6.83295368   -0.04661296
 C                  1.45120356    4.43116132    0.80938404
 H                  1.88654356    4.76587132    1.74622404
 C                  0.32092856    3.55907532   -1.59421596
 H                 -0.11819244    3.21678732   -2.52638696
 C                 -7.91071344   -0.25195768   -1.08592496
 H                 -8.98639244   -0.38522368   -1.13786596
 C                 -0.59829944   -5.33868768   -1.39838196
 H                 -0.36076744   -6.05187768   -2.18204296
 C                  1.15351056    5.35543932   -0.19738296
 H                  1.36000956    6.41076732   -0.04648696
 C                  0.58490756    4.91649632   -1.39835396
 H                  0.34746656    5.62968632   -2.18204196
 O                 13.10430825   -3.03353573    3.25219213
 O                  9.10787380    0.37973791    1.83697455
 C                 14.83337390   -1.58778376    2.45834369
 C                  9.75013440   -1.87704343    2.48024301
 C                 17.16702873   -2.27106462    2.91359028
 C                 12.13373603   -2.20652776    2.75954344
 C                 14.41689680   -2.73526868    3.15283868
 C                 16.69732923   -0.25148522    1.56793312
 C                 12.46995417   -0.95191134    2.16415953
 C                  7.79544476    0.07793507    1.92737739
 C                  8.35624177   -2.26593822    2.43249608
 C                  7.38665535   -1.23994996    2.18923372
 C                 10.83379018   -2.68882952    2.91557251
 C                 11.38333153   -0.07441563    1.89566887
 C                 16.23398705   -1.37015751    2.31800166
 C                 10.08305192   -0.54932795    2.07046908
 C                 16.67284624   -3.39978042    3.63285083
 H                 17.38047948   -4.08642120    4.08683889
 C                 15.72227680    0.59531935    0.95637499
 H                 16.06405508    1.42348075    0.34255725
 C                 14.37154088    0.38975250    1.11599511
 H                 13.68777295    1.05652396    0.61507540
 C                 15.31913877   -3.63595315    3.74539728
 H                 14.92856939   -4.49906592    4.27238595
 C                 13.86926356   -0.68315089    1.90692526
 C                 18.54937247   -2.01598634    2.76256200
 H                 19.26408835   -2.69382706    3.21976901
 C                 18.08358167   -0.04030704    1.43661654
 H                 18.43894424    0.80965416    0.86165226
 C                 10.65598162   -3.98992284    3.62629692
 C                  5.53491504   -2.84703170    2.39220278
 C                 11.55492934    1.36402881    1.53370206
 C                  7.86556749   -3.59604442    2.57043453
 H                  8.55629538   -4.41699726    2.67987757
 C                  6.88637882    1.12983100    1.71877585
 H                  7.27098114    2.12519031    1.52755378
 C                  4.15089828   -3.10780997    2.39763498
 H                  3.80311590   -4.12582694    2.54592449
 C                 18.99598036   -0.91426704    2.03530642
 H                 20.06102127   -0.73606926    1.92817264
 C                  5.53401160    0.86395732    1.75595347
 H                  4.82111878    1.66716728    1.59796023
 C                 12.06060924    2.25872601    2.48819401
 H                 12.33492612    1.89133117    3.47282519
 C                  5.04854769   -0.45802132    1.98453449
 C                  6.51798496   -3.87158451    2.55244549
 C                 10.11028628   -3.99986475    4.91833557
 H                  9.81023275   -3.06320390    5.37916305
 C                 11.04788116   -5.19993026    3.03583623
 H                 11.47850945   -5.19377967    2.03911491
 C                  3.66851289   -0.76430367    2.00560545
 H                  2.94833595    0.03457803    1.85574237
 C                  9.93878652   -5.20590989    5.60200503
 H                  9.51134027   -5.20306026    6.60025479
 C                 10.31446098   -6.41207154    5.00155975
 H                 10.17667709   -7.35020515    5.53075490
 C                 12.22557194    3.60912161    2.17105368
 H                 12.62197719    4.29274361    2.91586554
 C                 11.19611565    1.84189894    0.26514384
 H                 10.79636932    1.15269700   -0.47251099
 C                  3.23117062   -2.07140707    2.21140925
 C                 10.87225550   -6.40585048    3.71815146
 H                 11.16995826   -7.33852670    3.24839182
 C                 11.88325084    4.07756452    0.89831324
 H                 12.01602950    5.12626203    0.64985405
 C                 11.36524616    3.19132882   -0.05277515
 H                 11.09350075    3.54974982   -1.04114446
 C                  5.98848590   -1.51177204    2.19202465
 H                  6.19014393   -4.88480917    2.65634950
 H                  2.18268940   -2.28466811    2.22174691

 1 6 1.0 7 1.0
 2 10 1.0 16 1.0
 3 7 1.5 15 1.5 26 1.5
 4 11 1.0 13 1.5 16 1.5
 5 15 1.5 17 1.5 27 1.5
 6 9 1.5 13 1.5
 7 23 1.5
 8 15 1.5 19 1.5 29 1.5
 9 14 1.5 26 1.0
 10 12 1.5 36 1.5
 11 12 1.5 34 1.5
 12 25 1.5
 13 31 1.0
 14 16 1.5 33 1.0
 15
 16
 17 18 1.0 23 2.0
 18
 19 20 1.0 21 2.0
 20
 21 22 1.0 26 1.5
 22
 23 24 1.0
 24
 25 32 1.5 46 1.5
 26
 27 28 1.0 40 1.5
 28
 29 30 1.0 40 1.5
 30
 31 49 1.5 51 1.5
 32 38 1.5 47 1.5
 33 44 1.5 61 1.5
 34 35 1.0 47 2.0
 35
 36 37 1.0 42 2.0
 37
 38 39 1.0 63 1.5
 39
 40 41 1.0
 41
 42 43 1.0 46 1.5
 43
 44 45 1.0 59 1.5
 45
 46 53 1.5
 47 48 1.0
 48
 49 50 1.0 55 1.5
 50
 51 52 1.0 65 1.5
 52
 53 54 1.0 63 1.5
 54
 55 56 1.0 57 1.5
 56
 57 58 1.0 65 1.5
 58
 59 60 1.0 67 1.5
 60
 61 62 1.0 69 1.5
 62
 63 64 1.0
 64
 65 66 1.0
 66
 67 68 1.0 69 1.5
 68
 69 70 1.0
 70
 71 76 1.0 77 1.0
 72 80 1.0 86 1.0
 73 77 1.5 85 1.5 95 1.5
 74 81 1.0 83 1.5 86 1.5
 75 85 1.5 87 1.5 96 1.5
 76 79 1.5 83 1.5
 77 93 1.5
 78 85 1.5 89 1.5 98 1.5
 79 84 1.5 95 1.0
 80 82 1.5 105 1.5
 81 82 1.5 103 1.5
 82 140 1.5
 83 100 1.0
 84 86 1.5 102 1.0
 85
 86
 87 88 1.0 93 2.0
 88
 89 90 1.0 91 2.0
 90
 91 92 1.0 95 1.5
 92
 93 94 1.0
 94
 95
 96 97 1.0 109 1.5
 97
 98 99 1.0 109 1.5
 99
 100 118 1.5 120 1.5
 101 107 1.5 116 1.5 140 1.5
 102 113 1.5 130 1.5
 103 104 1.0 116 2.0
 104
 105 106 1.0 111 2.0
 106
 107 108 1.0 132 1.5
 108
 109 110 1.0
 110
 111 112 1.0 115 1.5
 112
 113 114 1.0 128 1.5
 114
 115 122 1.5 140 1.5
 116 117 1.0
 117
 118 119 1.0 124 1.5
 119
 120 121 1.0 134 1.5
 121
 122 123 1.0 132 1.5
 123
 124 125 1.0 126 1.5
 125
 126 127 1.0 134 1.5
 127
 128 129 1.0 136 1.5
 129
 130 131 1.0 138 1.5
 131
 132 133 1.0
 133
 134 135 1.0
 135
 136 137 1.0 138 1.5
 137
 138 139 1.0
 139
 140



























