%chk=/oasis/projects/nsf/lhu120/cmw414/rc_slip_y_90/1_8A/dimer/dimer.chk
%mem=110GB
#p b3lyp/6-311g(d,p) nosymm pop=full iop(3/33=1) punch=mo

c47

2 1
 O                  1.86343256   -2.18814168   -0.63312396
 O                 -1.87688744    1.76594132   -0.63317696
 C                  3.69461456   -0.67140268   -0.87047896
 C                 -1.39648944   -0.60712468   -0.87219696
 C                  5.97175156   -1.62878468   -0.73581696
 C                  0.95630456   -1.17504168   -0.77241696
 C                  3.19421256   -1.96292068   -0.63793396
 C                  5.65376956    0.77013232   -1.23999596
 C                  1.38305156    0.18492932   -0.87218096
 C                 -3.20766744    1.54071032   -0.63799196
 C                 -2.81321944   -0.85705968   -1.03609996
 C                 -3.70805744    0.24918032   -0.87049696
 C                 -0.37497644   -1.59266368   -0.78251796
 C                  0.36153156    1.17047132   -0.78252296
 C                  5.10807156   -0.51188368   -0.94441996
 C                 -0.96975044    0.75284632   -0.77244796
 C                  5.39488456   -2.90675768   -0.47207296
 H                  6.04966056   -3.75780568   -0.31297796
 C                  4.74462556    1.84550032   -1.48258496
 H                  5.14791656    2.81613132   -1.75583896
 C                  3.38157356    1.68676032   -1.38711396
 H                  2.74968056    2.53497832   -1.59754396
 C                  4.02720956   -3.07643968   -0.43155996
 H                  3.57365556   -4.04439768   -0.25108496
 C                 -5.12151244    0.08963932   -0.94441896
 C                  2.79978656    0.43484332   -1.03611196
 C                  7.36964356   -1.42936968   -0.80567596
 H                  8.03205756   -2.27390668   -0.64047896
 C                  7.05237556    0.92132132   -1.30766596
 H                  7.47035056    1.89702532   -1.53701096
 C                 -0.64793744   -3.04866968   -0.59509396
 C                 -5.66719544   -1.19239768   -1.23993096
 C                  0.63446856    2.62647732   -0.59506596
 C                 -3.39498944   -2.10900768   -1.38701396
 H                 -2.76308144   -2.95723068   -1.59738596
 C                 -4.04067744    2.65422632   -0.43164996
 H                 -3.58713344    3.62219432   -0.25120396
 C                 -7.06580044   -1.34360768   -1.30758296
 H                 -7.48376544   -2.31932768   -1.53687896
 C                  7.89727656   -0.17032768   -1.08596396
 H                  8.97295756   -0.03707868   -1.13791896
 C                 -5.40835044    2.48452732   -0.47215796
 H                 -6.06313544    3.33557232   -0.31308796
 C                  1.19132356    3.07285032    0.61237504
 H                  1.43075056    2.35253132    1.38925504
 C                 -5.98520444    1.20653832   -0.73585396
 C                 -4.75804044   -2.26777068   -1.48246496
 H                 -5.16132144   -3.23842268   -1.75565596
 C                 -1.20495544   -3.49503768    0.61227204
 H                 -1.44447744   -2.77471768    1.38912204
 C                 -0.33428944   -3.98126668   -1.59421096
 H                  0.10494656   -3.63898068   -2.52632896
 C                 -7.38309444    1.00710232   -0.80569496
 H                 -8.04551744    1.85163832   -0.64052696
 C                 -1.46487044   -4.85334768    0.80924704
 H                 -1.90033044   -5.18805568    1.74603204
 C                 -1.16705344   -5.77762768   -0.19748196
 H                 -1.37357744   -6.83295368   -0.04661296
 C                  1.45120356    4.43116132    0.80938404
 H                  1.88654356    4.76587132    1.74622404
 C                  0.32092856    3.55907532   -1.59421596
 H                 -0.11819244    3.21678732   -2.52638696
 C                 -7.91071344   -0.25195768   -1.08592496
 H                 -8.98639244   -0.38522368   -1.13786596
 C                 -0.59829944   -5.33868768   -1.39838196
 H                 -0.36076744   -6.05187768   -2.18204296
 C                  1.15351056    5.35543932   -0.19738296
 H                  1.36000956    6.41076732   -0.04648696
 C                  0.58490756    4.91649632   -1.39835396
 H                  0.34746656    5.62968632   -2.18204196
 O                 13.01879074   -2.85438002    3.22790253
 O                  9.02235629    0.55889362    1.81268495
 C                 14.74785639   -1.40862805    2.43405409
 C                  9.66461689   -1.69788772    2.45595341
 C                 17.08151122   -2.09190891    2.88930068
 C                 12.04821852   -2.02737205    2.73525384
 C                 14.33137929   -2.55611297    3.12854908
 C                 16.61181172   -0.07232951    1.54364352
 C                 12.38443666   -0.77275563    2.13986993
 C                  7.70992725    0.25709078    1.90308779
 C                  8.27072426   -2.08678251    2.40820648
 C                  7.30113784   -1.06079425    2.16494412
 C                 10.74827267   -2.50967381    2.89128291
 C                 11.29781402    0.10474008    1.87137927
 C                 16.14846954   -1.19100180    2.29371206
 C                  9.99753441   -0.37017224    2.04617948
 C                 16.58732873   -3.22062471    3.60856123
 H                 17.29496197   -3.90726549    4.06254929
 C                 15.63675929    0.77447506    0.93208539
 H                 15.97853757    1.60263646    0.31826765
 C                 14.28602337    0.56890821    1.09170551
 H                 13.60225544    1.23567967    0.59078580
 C                 15.23362126   -3.45679744    3.72110768
 H                 14.84305188   -4.31991021    4.24809635
 C                 13.78374605   -0.50399518    1.88263566
 C                 18.46385496   -1.83683063    2.73827240
 H                 19.17857084   -2.51467135    3.19547941
 C                 17.99806416    0.13884867    1.41232694
 H                 18.35342673    0.98880987    0.83736266
 C                 10.57046411   -3.81076713    3.60200732
 C                  5.44939753   -2.66787599    2.36791318
 C                 11.46941183    1.54318452    1.50941246
 C                  7.78004998   -3.41688871    2.54614493
 H                  8.47077787   -4.23784155    2.65558797
 C                  6.80086131    1.30898671    1.69448625
 H                  7.18546363    2.30434602    1.50326418
 C                  4.06538077   -2.92865426    2.37334538
 H                  3.71759839   -3.94667123    2.52163489
 C                 18.91046285   -0.73511133    2.01101682
 H                 19.97550376   -0.55691355    1.90388304
 C                  5.44849409    1.04311303    1.73166387
 H                  4.73560127    1.84632299    1.57367063
 C                 11.97509173    2.43788172    2.46390441
 H                 12.24940861    2.07048688    3.44853559
 C                  4.96303018   -0.27886561    1.96024489
 C                  6.43246745   -3.69242880    2.52815589
 C                 10.02476877   -3.82070904    4.89404597
 H                  9.72471524   -2.88404819    5.35487345
 C                 10.96236365   -5.02077455    3.01154663
 H                 11.39299194   -5.01462396    2.01482531
 C                  3.58299538   -0.58514796    1.98131585
 H                  2.86281844    0.21373374    1.83145277
 C                  9.85326901   -5.02675418    5.57771543
 H                  9.42582276   -5.02390455    6.57596519
 C                 10.22894347   -6.23291583    4.97727015
 H                 10.09115958   -7.17104944    5.50646530
 C                 12.14005443    3.78827732    2.14676408
 H                 12.53645968    4.47189932    2.89157594
 C                 11.11059814    2.02105465    0.24085424
 H                 10.71085181    1.33185271   -0.49680059
 C                  3.14565311   -1.89225136    2.18711965
 C                 10.78673799   -6.22669477    3.69386186
 H                 11.08444075   -7.15937099    3.22410222
 C                 11.79773333    4.25672023    0.87402364
 H                 11.93051199    5.30541774    0.62556445
 C                 11.27972865    3.37048453   -0.07706475
 H                 11.00798324    3.72890553   -1.06543406
 C                  5.90296839   -1.33261633    2.16773505
 H                  6.10462642   -4.70565346    2.63205990
 H                  2.09717189   -2.10551240    2.19745731

 1 6 1.0 7 1.0
 2 10 1.0 16 1.0
 3 7 1.5 15 1.5 26 1.5
 4 11 1.0 13 1.5 16 1.5
 5 15 1.5 17 1.5 27 1.5
 6 9 1.5 13 1.5
 7 23 1.5
 8 15 1.5 19 1.5 29 1.5
 9 14 1.5 26 1.0
 10 12 1.5 36 1.5
 11 12 1.5 34 1.5
 12 25 1.5
 13 31 1.0
 14 16 1.5 33 1.0
 15
 16
 17 18 1.0 23 2.0
 18
 19 20 1.0 21 2.0
 20
 21 22 1.0 26 1.5
 22
 23 24 1.0
 24
 25 32 1.5 46 1.5
 26
 27 28 1.0 40 1.5
 28
 29 30 1.0 40 1.5
 30
 31 49 1.5 51 1.5
 32 38 1.5 47 1.5
 33 44 1.5 61 1.5
 34 35 1.0 47 2.0
 35
 36 37 1.0 42 2.0
 37
 38 39 1.0 63 1.5
 39
 40 41 1.0
 41
 42 43 1.0 46 1.5
 43
 44 45 1.0 59 1.5
 45
 46 53 1.5
 47 48 1.0
 48
 49 50 1.0 55 1.5
 50
 51 52 1.0 65 1.5
 52
 53 54 1.0 63 1.5
 54
 55 56 1.0 57 1.5
 56
 57 58 1.0 65 1.5
 58
 59 60 1.0 67 1.5
 60
 61 62 1.0 69 1.5
 62
 63 64 1.0
 64
 65 66 1.0
 66
 67 68 1.0 69 1.5
 68
 69 70 1.0
 70
 71 76 1.0 77 1.0
 72 80 1.0 86 1.0
 73 77 1.5 85 1.5 95 1.5
 74 81 1.0 83 1.5 86 1.5
 75 85 1.5 87 1.5 96 1.5
 76 79 1.5 83 1.5
 77 93 1.5
 78 85 1.5 89 1.5 98 1.5
 79 84 1.5 95 1.0
 80 82 1.5 105 1.5
 81 82 1.5 103 1.5
 82 140 1.5
 83 100 1.0
 84 86 1.5 102 1.0
 85
 86
 87 88 1.0 93 2.0
 88
 89 90 1.0 91 2.0
 90
 91 92 1.0 95 1.5
 92
 93 94 1.0
 94
 95
 96 97 1.0 109 1.5
 97
 98 99 1.0 109 1.5
 99
 100 118 1.5 120 1.5
 101 107 1.5 116 1.5 140 1.5
 102 113 1.5 130 1.5
 103 104 1.0 116 2.0
 104
 105 106 1.0 111 2.0
 106
 107 108 1.0 132 1.5
 108
 109 110 1.0
 110
 111 112 1.0 115 1.5
 112
 113 114 1.0 128 1.5
 114
 115 122 1.5 140 1.5
 116 117 1.0
 117
 118 119 1.0 124 1.5
 119
 120 121 1.0 134 1.5
 121
 122 123 1.0 132 1.5
 123
 124 125 1.0 126 1.5
 125
 126 127 1.0 134 1.5
 127
 128 129 1.0 136 1.5
 129
 130 131 1.0 138 1.5
 131
 132 133 1.0
 133
 134 135 1.0
 135
 136 137 1.0 138 1.5
 137
 138 139 1.0
 139
 140

























