%chk=/oasis/projects/nsf/lhu120/cmw414/rc_slip_y_90/0_2A/dimer/dimer.chk
%mem=110GB
#p b3lyp/6-311g(d,p) nosymm pop=full iop(3/33=1) punch=mo

c47

2 1
 O                  1.86343256   -2.18814168   -0.63312396
 O                 -1.87688744    1.76594132   -0.63317696
 C                  3.69461456   -0.67140268   -0.87047896
 C                 -1.39648944   -0.60712468   -0.87219696
 C                  5.97175156   -1.62878468   -0.73581696
 C                  0.95630456   -1.17504168   -0.77241696
 C                  3.19421256   -1.96292068   -0.63793396
 C                  5.65376956    0.77013232   -1.23999596
 C                  1.38305156    0.18492932   -0.87218096
 C                 -3.20766744    1.54071032   -0.63799196
 C                 -2.81321944   -0.85705968   -1.03609996
 C                 -3.70805744    0.24918032   -0.87049696
 C                 -0.37497644   -1.59266368   -0.78251796
 C                  0.36153156    1.17047132   -0.78252296
 C                  5.10807156   -0.51188368   -0.94441996
 C                 -0.96975044    0.75284632   -0.77244796
 C                  5.39488456   -2.90675768   -0.47207296
 H                  6.04966056   -3.75780568   -0.31297796
 C                  4.74462556    1.84550032   -1.48258496
 H                  5.14791656    2.81613132   -1.75583896
 C                  3.38157356    1.68676032   -1.38711396
 H                  2.74968056    2.53497832   -1.59754396
 C                  4.02720956   -3.07643968   -0.43155996
 H                  3.57365556   -4.04439768   -0.25108496
 C                 -5.12151244    0.08963932   -0.94441896
 C                  2.79978656    0.43484332   -1.03611196
 C                  7.36964356   -1.42936968   -0.80567596
 H                  8.03205756   -2.27390668   -0.64047896
 C                  7.05237556    0.92132132   -1.30766596
 H                  7.47035056    1.89702532   -1.53701096
 C                 -0.64793744   -3.04866968   -0.59509396
 C                 -5.66719544   -1.19239768   -1.23993096
 C                  0.63446856    2.62647732   -0.59506596
 C                 -3.39498944   -2.10900768   -1.38701396
 H                 -2.76308144   -2.95723068   -1.59738596
 C                 -4.04067744    2.65422632   -0.43164996
 H                 -3.58713344    3.62219432   -0.25120396
 C                 -7.06580044   -1.34360768   -1.30758296
 H                 -7.48376544   -2.31932768   -1.53687896
 C                  7.89727656   -0.17032768   -1.08596396
 H                  8.97295756   -0.03707868   -1.13791896
 C                 -5.40835044    2.48452732   -0.47215796
 H                 -6.06313544    3.33557232   -0.31308796
 C                  1.19132356    3.07285032    0.61237504
 H                  1.43075056    2.35253132    1.38925504
 C                 -5.98520444    1.20653832   -0.73585396
 C                 -4.75804044   -2.26777068   -1.48246496
 H                 -5.16132144   -3.23842268   -1.75565596
 C                 -1.20495544   -3.49503768    0.61227204
 H                 -1.44447744   -2.77471768    1.38912204
 C                 -0.33428944   -3.98126668   -1.59421096
 H                  0.10494656   -3.63898068   -2.52632896
 C                 -7.38309444    1.00710232   -0.80569496
 H                 -8.04551744    1.85163832   -0.64052696
 C                 -1.46487044   -4.85334768    0.80924704
 H                 -1.90033044   -5.18805568    1.74603204
 C                 -1.16705344   -5.77762768   -0.19748196
 H                 -1.37357744   -6.83295368   -0.04661296
 C                  1.45120356    4.43116132    0.80938404
 H                  1.88654356    4.76587132    1.74622404
 C                  0.32092856    3.55907532   -1.59421596
 H                 -0.11819244    3.21678732   -2.52638696
 C                 -7.91071344   -0.25195768   -1.08592496
 H                 -8.98639244   -0.38522368   -1.13786596
 C                 -0.59829944   -5.33868768   -1.39838196
 H                 -0.36076744   -6.05187768   -2.18204296
 C                  1.15351056    5.35543932   -0.19738296
 H                  1.36000956    6.41076732   -0.04648696
 C                  0.58490756    4.91649632   -1.39835396
 H                  0.34746656    5.62968632   -2.18204196
 O                 12.33465060   -1.42113431    3.03358573
 O                  8.33821615    1.99213933    1.61836815
 C                 14.06371625    0.02461766    2.23973729
 C                  8.98047675   -0.26464201    2.26163661
 C                 16.39737108   -0.65866320    2.69498388
 C                 11.36407838   -0.59412634    2.54093704
 C                 13.64723915   -1.12286726    2.93423228
 C                 15.92767158    1.36091620    1.34932672
 C                 11.70029652    0.66049008    1.94555313
 C                  7.02578711    1.69033649    1.70877099
 C                  7.58658412   -0.65353680    2.21388968
 C                  6.61699770    0.37245146    1.97062732
 C                 10.06413253   -1.07642810    2.69696611
 C                 10.61367388    1.53798579    1.67706247
 C                 15.46432940    0.24224391    2.09939526
 C                  9.31339427    1.06307347    1.85186268
 C                 15.90318859   -1.78737900    3.41424443
 H                 16.61082183   -2.47401978    3.86823249
 C                 14.95261915    2.20772077    0.73776859
 H                 15.29439743    3.03588217    0.12395085
 C                 13.60188323    2.00215392    0.89738871
 H                 12.91811530    2.66892538    0.39646900
 C                 14.54948112   -2.02355173    3.52679088
 H                 14.15891174   -2.88666450    4.05377955
 C                 13.09960591    0.92925053    1.68831886
 C                 17.77971482   -0.40358492    2.54395560
 H                 18.49443070   -1.08142564    3.00116261
 C                 17.31392402    1.57209438    1.21801014
 H                 17.66928659    2.42205558    0.64304586
 C                  9.88632397   -2.37752142    3.40769052
 C                  4.76525739   -1.23463028    2.17359638
 C                 10.78527169    2.97643023    1.31509566
 C                  7.09590984   -1.98364300    2.35182813
 H                  7.78663773   -2.80459584    2.46127117
 C                  6.11672117    2.74223242    1.50016945
 H                  6.50132349    3.73759173    1.30894738
 C                  3.38124063   -1.49540855    2.17902858
 H                  3.03345825   -2.51342552    2.32731809
 C                 18.22632271    0.69813438    1.81670002
 H                 19.29136362    0.87633216    1.70956624
 C                  4.76435395    2.47635874    1.53734707
 H                  4.05146113    3.27956870    1.37935383
 C                 11.29095159    3.87112743    2.26958761
 H                 11.56526847    3.50373259    3.25421879
 C                  4.27889004    1.15438010    1.76592809
 C                  5.74832731   -2.25918309    2.33383909
 C                  9.34062863   -2.38746333    4.69972917
 H                  9.04057510   -1.45080248    5.16055665
 C                 10.27822351   -3.58752884    2.81722983
 H                 10.70885180   -3.58137825    1.82050851
 C                  2.89885524    0.84809775    1.78699905
 H                  2.17867830    1.64697945    1.63713597
 C                  9.16912887   -3.59350847    5.38339863
 H                  8.74168262   -3.59065884    6.38164839
 C                  9.54480333   -4.79967012    4.78295335
 H                  9.40701944   -5.73780373    5.31214850
 C                 11.45591429    5.22152303    1.95244728
 H                 11.85231954    5.90514503    2.69725914
 C                 10.42645800    3.45430036    0.04653744
 H                 10.02671167    2.76509842   -0.69111739
 C                  2.46151297   -0.45900565    1.99280285
 C                 10.10259785   -4.79344906    3.49954506
 H                 10.40030061   -5.72612528    3.02978542
 C                 11.11359319    5.68996594    0.67970684
 H                 11.24637185    6.73866345    0.43124765
 C                 10.59558851    4.80373024   -0.27138155
 H                 10.32384310    5.16215124   -1.25975086
 C                  5.21882825    0.10062938    1.97341825
 H                  5.42048628   -3.27240775    2.43774310
 H                  1.41303175   -0.67226669    2.00314051

 1 6 1.0 7 1.0
 2 10 1.0 16 1.0
 3 7 1.5 15 1.5 26 1.5
 4 11 1.0 13 1.5 16 1.5
 5 15 1.5 17 1.5 27 1.5
 6 9 1.5 13 1.5
 7 23 1.5
 8 15 1.5 19 1.5 29 1.5
 9 14 1.5 26 1.0
 10 12 1.5 36 1.5
 11 12 1.5 34 1.5
 12 25 1.5
 13 31 1.0
 14 16 1.5 33 1.0
 15
 16
 17 18 1.0 23 2.0
 18
 19 20 1.0 21 2.0
 20
 21 22 1.0 26 1.5
 22
 23 24 1.0
 24
 25 32 1.5 46 1.5
 26
 27 28 1.0 40 1.5
 28
 29 30 1.0 40 1.5
 30
 31 49 1.5 51 1.5
 32 38 1.5 47 1.5
 33 44 1.5 61 1.5
 34 35 1.0 47 2.0
 35
 36 37 1.0 42 2.0
 37
 38 39 1.0 63 1.5
 39
 40 41 1.0
 41
 42 43 1.0 46 1.5
 43
 44 45 1.0 59 1.5
 45
 46 53 1.5
 47 48 1.0
 48
 49 50 1.0 55 1.5
 50
 51 52 1.0 65 1.5
 52
 53 54 1.0 63 1.5
 54
 55 56 1.0 57 1.5
 56
 57 58 1.0 65 1.5
 58
 59 60 1.0 67 1.5
 60
 61 62 1.0 69 1.5
 62
 63 64 1.0
 64
 65 66 1.0
 66
 67 68 1.0 69 1.5
 68
 69 70 1.0
 70
 71 76 1.0 77 1.0
 72 80 1.0 86 1.0
 73 77 1.5 85 1.5 95 1.5
 74 81 1.0 83 1.5 86 1.5
 75 85 1.5 87 1.5 96 1.5
 76 79 1.5 83 1.5
 77 93 1.5
 78 85 1.5 89 1.5 98 1.5
 79 84 1.5 95 1.0
 80 82 1.5 105 1.5
 81 82 1.5 103 1.5
 82 140 1.5
 83 100 1.0
 84 86 1.5 102 1.0
 85
 86
 87 88 1.0 93 2.0
 88
 89 90 1.0 91 2.0
 90
 91 92 1.0 95 1.5
 92
 93 94 1.0
 94
 95
 96 97 1.0 109 1.5
 97
 98 99 1.0 109 1.5
 99
 100 118 1.5 120 1.5
 101 107 1.5 116 1.5 140 1.5
 102 113 1.5 130 1.5
 103 104 1.0 116 2.0
 104
 105 106 1.0 111 2.0
 106
 107 108 1.0 132 1.5
 108
 109 110 1.0
 110
 111 112 1.0 115 1.5
 112
 113 114 1.0 128 1.5
 114
 115 122 1.5 140 1.5
 116 117 1.0
 117
 118 119 1.0 124 1.5
 119
 120 121 1.0 134 1.5
 121
 122 123 1.0 132 1.5
 123
 124 125 1.0 126 1.5
 125
 126 127 1.0 134 1.5
 127
 128 129 1.0 136 1.5
 129
 130 131 1.0 138 1.5
 131
 132 133 1.0
 133
 134 135 1.0
 135
 136 137 1.0 138 1.5
 137
 138 139 1.0
 139
 140









