%chk=H:\rc_slip_y_90\n_1_0A\dimer\dimer.chk
%mem=110GB
#p b3lyp/6-311g(d,p) nosymm pop=full iop(3/33=1) punch=mo

c47

2 1
 O                  1.86343256   -2.18814168   -0.63312396
 O                 -1.87688744    1.76594132   -0.63317696
 C                  3.69461456   -0.67140268   -0.87047896
 C                 -1.39648944   -0.60712468   -0.87219696
 C                  5.97175156   -1.62878468   -0.73581696
 C                  0.95630456   -1.17504168   -0.77241696
 C                  3.19421256   -1.96292068   -0.63793396
 C                  5.65376956    0.77013232   -1.23999596
 C                  1.38305156    0.18492932   -0.87218096
 C                 -3.20766744    1.54071032   -0.63799196
 C                 -2.81321944   -0.85705968   -1.03609996
 C                 -3.70805744    0.24918032   -0.87049696
 C                 -0.37497644   -1.59266368   -0.78251796
 C                  0.36153156    1.17047132   -0.78252296
 C                  5.10807156   -0.51188368   -0.94441996
 C                 -0.96975044    0.75284632   -0.77244796
 C                  5.39488456   -2.90675768   -0.47207296
 H                  6.04966056   -3.75780568   -0.31297796
 C                  4.74462556    1.84550032   -1.48258496
 H                  5.14791656    2.81613132   -1.75583896
 C                  3.38157356    1.68676032   -1.38711396
 H                  2.74968056    2.53497832   -1.59754396
 C                  4.02720956   -3.07643968   -0.43155996
 H                  3.57365556   -4.04439768   -0.25108496
 C                 -5.12151244    0.08963932   -0.94441896
 C                  2.79978656    0.43484332   -1.03611196
 C                  7.36964356   -1.42936968   -0.80567596
 H                  8.03205756   -2.27390668   -0.64047896
 C                  7.05237556    0.92132132   -1.30766596
 H                  7.47035056    1.89702532   -1.53701096
 C                 -0.64793744   -3.04866968   -0.59509396
 C                 -5.66719544   -1.19239768   -1.23993096
 C                  0.63446856    2.62647732   -0.59506596
 C                 -3.39498944   -2.10900768   -1.38701396
 H                 -2.76308144   -2.95723068   -1.59738596
 C                 -4.04067744    2.65422632   -0.43164996
 H                 -3.58713344    3.62219432   -0.25120396
 C                 -7.06580044   -1.34360768   -1.30758296
 H                 -7.48376544   -2.31932768   -1.53687896
 C                  7.89727656   -0.17032768   -1.08596396
 H                  8.97295756   -0.03707868   -1.13791896
 C                 -5.40835044    2.48452732   -0.47215796
 H                 -6.06313544    3.33557232   -0.31308796
 C                  1.19132356    3.07285032    0.61237504
 H                  1.43075056    2.35253132    1.38925504
 C                 -5.98520444    1.20653832   -0.73585396
 C                 -4.75804044   -2.26777068   -1.48246496
 H                 -5.16132144   -3.23842268   -1.75565596
 C                 -1.20495544   -3.49503768    0.61227204
 H                 -1.44447744   -2.77471768    1.38912204
 C                 -0.33428944   -3.98126668   -1.59421096
 H                  0.10494656   -3.63898068   -2.52632896
 C                 -7.38309444    1.00710232   -0.80569496
 H                 -8.04551744    1.85163832   -0.64052696
 C                 -1.46487044   -4.85334768    0.80924704
 H                 -1.90033044   -5.18805568    1.74603204
 C                 -1.16705344   -5.77762768   -0.19748196
 H                 -1.37357744   -6.83295368   -0.04661296
 C                  1.45120356    4.43116132    0.80938404
 H                  1.88654356    4.76587132    1.74622404
 C                  0.32092856    3.55907532   -1.59421596
 H                 -0.11819244    3.21678732   -2.52638696
 C                 -7.91071344   -0.25195768   -1.08592496
 H                 -8.98639244   -0.38522368   -1.13786596
 C                 -0.59829944   -5.33868768   -1.39838196
 H                 -0.36076744   -6.05187768   -2.18204296
 C                  1.15351056    5.35543932   -0.19738296
 H                  1.36000956    6.41076732   -0.04648696
 C                  0.58490756    4.91649632   -1.39835396
 H                  0.34746656    5.62968632   -2.18204196
 O                 11.82154548   -0.34620003    2.88784820
 O                  7.82511103    3.06707361    1.47263062
 C                 13.55061113    1.09955194    2.09399976
 C                  8.46737163    0.81029227    2.11589908
 C                 15.88426596    0.41627108    2.54924635
 C                 10.85097326    0.48080794    2.39519951
 C                 13.13413403   -0.04793298    2.78849475
 C                 15.41456646    2.43585048    1.20358919
 C                 11.18719140    1.73542436    1.79981560
 C                  6.51268199    2.76527077    1.56303346
 C                  7.07347900    0.42139748    2.06815215
 C                  6.10389258    1.44738574    1.82488979
 C                  9.55102741   -0.00149382    2.55122858
 C                 10.10056876    2.61292007    1.53132494
 C                 14.95122428    1.31717819    1.95365773
 C                  8.80028915    2.13800775    1.70612515
 C                 15.39008347   -0.71244472    3.26850690
 H                 16.09771671   -1.39908550    3.72249496
 C                 14.43951403    3.28265505    0.59203106
 H                 14.78129231    4.11081645   -0.02178668
 C                 13.08877811    3.07708820    0.75165118
 H                 12.40501018    3.74385966    0.25073147
 C                 14.03637600   -0.94861745    3.38105335
 H                 13.64580662   -1.81173022    3.90804202
 C                 12.58650079    2.00418481    1.54258133
 C                 17.26660970    0.67134936    2.39821807
 H                 17.98132558   -0.00649136    2.85542508
 C                 16.80081890    2.64702866    1.07227261
 H                 17.15618147    3.49698986    0.49730833
 C                  9.37321885   -1.30258714    3.26195299
 C                  4.25215227   -0.15969600    2.02785885
 C                 10.27216657    4.05136451    1.16935813
 C                  6.58280472   -0.90870872    2.20609060
 H                  7.27353261   -1.72966156    2.31553364
 C                  5.60361605    3.81716670    1.35443192
 H                  5.98821837    4.81252601    1.16320985
 C                  2.86813551   -0.42047427    2.03329105
 H                  2.52035313   -1.43849124    2.18158056
 C                 17.71321759    1.77306866    1.67096249
 H                 18.77825850    1.95126644    1.56382871
 C                  4.25124883    3.55129302    1.39160954
 H                  3.53835601    4.35450298    1.23361630
 C                 10.77784647    4.94606171    2.12385008
 H                 11.05216335    4.57866687    3.10848126
 C                  3.76578492    2.22931438    1.62019056
 C                  5.23522219   -1.18424881    2.18810156
 C                  8.82752351   -1.31252905    4.55399164
 H                  8.52746998   -0.37586820    5.01481912
 C                  9.76511839   -2.51259456    2.67149230
 H                 10.19574668   -2.50644397    1.67477098
 C                  2.38575012    1.92303203    1.64126152
 H                  1.66557318    2.72191373    1.49139844
 C                  8.65602375   -2.51857419    5.23766110
 H                  8.22857750   -2.51572456    6.23591086
 C                  9.03169821   -3.72473584    4.63721582
 H                  8.89391432   -4.66286945    5.16641097
 C                 10.94280917    6.29645731    1.80670975
 H                 11.33921442    6.98007931    2.55152161
 C                  9.91335288    4.52923464   -0.09920009
 H                  9.51360655    3.84003270   -0.83685492
 C                  1.94840785    0.61592863    1.84706532
 C                  9.58949273   -3.71851478    3.35380753
 H                  9.88719549   -4.65119100    2.88404789
 C                 10.60048807    6.76490022    0.53396931
 H                 10.73326673    7.81359773    0.28551012
 C                 10.08248339    5.87866452   -0.41711908
 H                  9.81073798    6.23708552   -1.40548839
 C                  4.70572313    1.17556366    1.82768072
 H                  4.90738116   -2.19747347    2.29200557
 H                  0.89992663    0.40266759    1.85740298

 1 6 1.0 7 1.0
 2 10 1.0 16 1.0
 3 7 1.5 15 1.5 26 1.5
 4 11 1.0 13 1.5 16 1.5
 5 15 1.5 17 1.5 27 1.5
 6 9 1.5 13 1.5
 7 23 1.5
 8 15 1.5 19 1.5 29 1.5
 9 14 1.5 26 1.0
 10 12 1.5 36 1.5
 11 12 1.5 34 1.5
 12 25 1.5
 13 31 1.0
 14 16 1.5 33 1.0
 15
 16
 17 18 1.0 23 2.0
 18
 19 20 1.0 21 2.0
 20
 21 22 1.0 26 1.5
 22
 23 24 1.0
 24
 25 32 1.5 46 1.5
 26
 27 28 1.0 40 1.5
 28
 29 30 1.0 40 1.5
 30
 31 49 1.5 51 1.5
 32 38 1.5 47 1.5
 33 44 1.5 61 1.5
 34 35 1.0 47 2.0
 35
 36 37 1.0 42 2.0
 37
 38 39 1.0 63 1.5
 39
 40 41 1.0
 41
 42 43 1.0 46 1.5
 43
 44 45 1.0 59 1.5
 45
 46 53 1.5
 47 48 1.0
 48
 49 50 1.0 55 1.5
 50
 51 52 1.0 65 1.5
 52
 53 54 1.0 63 1.5
 54
 55 56 1.0 57 1.5
 56
 57 58 1.0 65 1.5
 58
 59 60 1.0 67 1.5
 60
 61 62 1.0 69 1.5
 62
 63 64 1.0
 64
 65 66 1.0
 66
 67 68 1.0 69 1.5
 68
 69 70 1.0
 70
 71 76 1.0 77 1.0
 72 80 1.0 86 1.0
 73 77 1.5 85 1.5 95 1.5
 74 81 1.0 83 1.5 86 1.5
 75 85 1.5 87 1.5 96 1.5
 76 79 1.5 83 1.5
 77 93 1.5
 78 85 1.5 89 1.5 98 1.5
 79 84 1.5 95 1.0
 80 82 1.5 105 1.5
 81 82 1.5 103 1.5
 82 140 1.5
 83 100 1.0
 84 86 1.5 102 1.0
 85
 86
 87 88 1.0 93 2.0
 88
 89 90 1.0 91 2.0
 90
 91 92 1.0 95 1.5
 92
 93 94 1.0
 94
 95
 96 97 1.0 109 1.5
 97
 98 99 1.0 109 1.5
 99
 100 118 1.5 120 1.5
 101 107 1.5 116 1.5 140 1.5
 102 113 1.5 130 1.5
 103 104 1.0 116 2.0
 104
 105 106 1.0 111 2.0
 106
 107 108 1.0 132 1.5
 108
 109 110 1.0
 110
 111 112 1.0 115 1.5
 112
 113 114 1.0 128 1.5
 114
 115 122 1.5 140 1.5
 116 117 1.0
 117
 118 119 1.0 124 1.5
 119
 120 121 1.0 134 1.5
 121
 122 123 1.0 132 1.5
 123
 124 125 1.0 126 1.5
 125
 126 127 1.0 134 1.5
 127
 128 129 1.0 136 1.5
 129
 130 131 1.0 138 1.5
 131
 132 133 1.0
 133
 134 135 1.0
 135
 136 137 1.0 138 1.5
 137
 138 139 1.0
 139
 140





























































