%chk=/oasis/projects/nsf/lhu120/cmw414/pent_y_stack/2_4A/dimer/dimer.chk
%nprocshared=24
%mem=110GB
#p b3lyp/6-311g(d,p) nosymm pop=full iop(3/33=1) punch=mo

c47

0 1
 C                 -7.73952665   -8.76013613    3.42707686
 C                 -7.71152665   -7.90413613    2.37107686
 C                 -7.09052665   -8.22213613    1.13607686
 C                 -7.07552665   -7.32313613    0.05107686
 C                 -6.42052665   -7.65613613   -1.16692314
 C                 -6.37152665   -6.79213613   -2.24892314
 C                 -5.82352665   -9.00013613   -1.30092314
 C                 -5.93852665   -9.84413613   -0.24292314
 C                 -6.45952665   -9.54013613    1.00207686
 C                 -6.58552665  -10.40913613    2.09307686
 C                 -7.09752665  -10.09213613    3.29807686
 H                 -8.22952665   -8.44113613    4.49407686
 H                 -8.12052665   -6.88013613    2.46407686
 H                 -7.50952665   -6.31013613    0.18707686
 H                 -6.83852665   -5.77413613   -2.10392314
 H                 -5.48052665  -10.85513613   -0.33492314
 H                 -6.12852665  -11.41513613    2.01407686
 H                 -7.10852665  -10.77113613    4.17507686
 C                 -5.77152665   -7.11113613   -3.48692314
 C                 -5.22352665   -9.31913613   -2.53892314
 C                 -5.17352665   -8.45613613   -3.62092314
 C                 -5.65652665   -6.26813613   -4.54492314
 H                 -4.75552665  -10.33813613   -2.68392314
 C                 -4.51952665   -8.78913613   -4.83892314
 C                 -5.13452665   -6.57213613   -5.78992314
 H                 -6.11452665   -5.25713613   -4.45292314
 C                 -4.50452665   -7.89013613   -5.92392314
 H                 -4.08552665   -9.80113613   -4.97492314
 C                 -5.00952665   -5.70313613   -6.88092314
 C                 -3.88352665   -8.20713613   -7.15892314
 C                 -4.49752665   -6.02013613   -8.08592314
 H                 -5.46652665   -4.69713613   -6.80192314
 C                 -3.85552665   -7.35213613   -8.21492314
 H                 -3.47452665   -9.23213613   -7.25192314
 H                 -4.48552665   -5.34113613   -8.96292314
 H                 -3.36552665   -7.67113613   -9.28192314
 C                 -5.55955519   -5.28557798    4.80563065
 C                 -5.53155519   -4.42957798    3.74963065
 C                 -4.91055519   -4.74757798    2.51463065
 C                 -4.89555519   -3.84857798    1.42963065
 C                 -4.24055519   -4.18157798    0.21163065
 C                 -4.19155519   -3.31757798   -0.87036935
 C                 -3.64355519   -5.52557798    0.07763065
 C                 -3.75855519   -6.36957798    1.13563065
 C                 -4.27955519   -6.06557798    2.38063065
 C                 -4.40555519   -6.93457798    3.47163065
 C                 -4.91755519   -6.61757798    4.67663065
 H                 -6.04955519   -4.96657798    5.87263065
 H                 -5.94055519   -3.40557798    3.84263065
 H                 -5.32955519   -2.83557798    1.56563065
 H                 -4.65855519   -2.29957798   -0.72536935
 H                 -3.30055519   -7.38057798    1.04363065
 H                 -3.94855519   -7.94057798    3.39263065
 H                 -4.92855519   -7.29657798    5.55363065
 C                 -3.59155519   -3.63657798   -2.10836935
 C                 -3.04355519   -5.84457798   -1.16036935
 C                 -2.99355519   -4.98157798   -2.24236935
 C                 -3.47655519   -2.79357798   -3.16636935
 H                 -2.57555519   -6.86357798   -1.30536935
 C                 -2.33955519   -5.31457798   -3.46036935
 C                 -2.95455519   -3.09757798   -4.41136935
 H                 -3.93455519   -1.78257798   -3.07436935
 C                 -2.32455519   -4.41557798   -4.54536935
 H                 -1.90555519   -6.32657798   -3.59636935
 C                 -2.82955519   -2.22857798   -5.50236935
 C                 -1.70355519   -4.73257798   -5.78036935
 C                 -2.31755519   -2.54557798   -6.70736935
 H                 -3.28655519   -1.22257798   -5.42336935
 C                 -1.67555519   -3.87757798   -6.83636935
 H                 -1.29455519   -5.75757798   -5.87336935
 H                 -2.30555519   -1.86657798   -7.58436935
 H                 -1.18555519   -4.19657798   -7.90336935

 1 2 2.0 11 1.0 12 1.0
 2 3 1.5 13 1.0
 3 4 1.5 9 1.0
 4 5 1.5 14 1.0
 5 6 2.0 7 1.0
 6 15 1.0 19 1.5
 7 8 2.0 20 1.5
 8 9 2.0 16 1.0
 9 10 1.5
 10 11 2.0 17 1.0
 11 18 1.0
 12
 13
 14
 15
 16
 17
 18
 19 21 1.0 22 2.0
 20 21 2.0 23 1.0
 21 24 1.5
 22 25 2.0 26 1.0
 23
 24 27 1.5 28 1.0
 25 27 1.0 29 1.5
 26
 27 30 1.5
 28
 29 31 2.0 32 1.0
 30 33 2.0 34 1.0
 31 33 1.0 35 1.0
 32
 33 36 1.0
 34
 35
 36
 37 38 2.0 47 1.0 48 1.0
 38 39 1.5 49 1.0
 39 40 1.5 45 1.0
 40 41 1.5 50 1.0
 41 42 2.0 43 1.0
 42 51 1.0 55 1.5
 43 44 2.0 56 1.5
 44 45 2.0 52 1.0
 45 46 1.5
 46 47 2.0 53 1.0
 47 54 1.0
 48
 49
 50
 51
 52
 53
 54
 55 57 1.0 58 2.0
 56 57 2.0 59 1.0
 57 60 1.5
 58 61 2.0 62 1.0
 59
 60 63 1.5 64 1.0
 61 63 1.0 65 1.5
 62
 63 66 1.5
 64
 65 67 2.0 68 1.0
 66 69 2.0 70 1.0
 67 69 1.0 71 1.0
 68
 69 72 1.0
 70
 71
 72


