%chk=/oasis/projects/nsf/lhu120/cmw414/rc_slip_x_new/0_8A/dimer/dimer.chk
%mem=110GB
#p b3lyp/6-311g(d,p) nosymm pop=full iop(3/33=1) punch=mo

c47

2 1
 O                  1.86343256   -2.18814168   -0.63312396
 O                 -1.87688744    1.76594132   -0.63317696
 C                  3.69461456   -0.67140268   -0.87047896
 C                 -1.39648944   -0.60712468   -0.87219696
 C                  5.97175156   -1.62878468   -0.73581696
 C                  0.95630456   -1.17504168   -0.77241696
 C                  3.19421256   -1.96292068   -0.63793396
 C                  5.65376956    0.77013232   -1.23999596
 C                  1.38305156    0.18492932   -0.87218096
 C                 -3.20766744    1.54071032   -0.63799196
 C                 -2.81321944   -0.85705968   -1.03609996
 C                 -3.70805744    0.24918032   -0.87049696
 C                 -0.37497644   -1.59266368   -0.78251796
 C                  0.36153156    1.17047132   -0.78252296
 C                  5.10807156   -0.51188368   -0.94441996
 C                 -0.96975044    0.75284632   -0.77244796
 C                  5.39488456   -2.90675768   -0.47207296
 H                  6.04966056   -3.75780568   -0.31297796
 C                  4.74462556    1.84550032   -1.48258496
 H                  5.14791656    2.81613132   -1.75583896
 C                  3.38157356    1.68676032   -1.38711396
 H                  2.74968056    2.53497832   -1.59754396
 C                  4.02720956   -3.07643968   -0.43155996
 H                  3.57365556   -4.04439768   -0.25108496
 C                 -5.12151244    0.08963932   -0.94441896
 C                  2.79978656    0.43484332   -1.03611196
 C                  7.36964356   -1.42936968   -0.80567596
 H                  8.03205756   -2.27390668   -0.64047896
 C                  7.05237556    0.92132132   -1.30766596
 H                  7.47035056    1.89702532   -1.53701096
 C                 -0.64793744   -3.04866968   -0.59509396
 C                 -5.66719544   -1.19239768   -1.23993096
 C                  0.63446856    2.62647732   -0.59506596
 C                 -3.39498944   -2.10900768   -1.38701396
 H                 -2.76308144   -2.95723068   -1.59738596
 C                 -4.04067744    2.65422632   -0.43164996
 H                 -3.58713344    3.62219432   -0.25120396
 C                 -7.06580044   -1.34360768   -1.30758296
 H                 -7.48376544   -2.31932768   -1.53687896
 C                  7.89727656   -0.17032768   -1.08596396
 H                  8.97295756   -0.03707868   -1.13791896
 C                 -5.40835044    2.48452732   -0.47215796
 H                 -6.06313544    3.33557232   -0.31308796
 C                  1.19132356    3.07285032    0.61237504
 H                  1.43075056    2.35253132    1.38925504
 C                 -5.98520444    1.20653832   -0.73585396
 C                 -4.75804044   -2.26777068   -1.48246496
 H                 -5.16132144   -3.23842268   -1.75565596
 C                 -1.20495544   -3.49503768    0.61227204
 H                 -1.44447744   -2.77471768    1.38912204
 C                 -0.33428944   -3.98126668   -1.59421096
 H                  0.10494656   -3.63898068   -2.52632896
 C                 -7.38309444    1.00710232   -0.80569496
 H                 -8.04551744    1.85163832   -0.64052696
 C                 -1.46487044   -4.85334768    0.80924704
 H                 -1.90033044   -5.18805568    1.74603204
 C                 -1.16705344   -5.77762768   -0.19748196
 H                 -1.37357744   -6.83295368   -0.04661296
 C                  1.45120356    4.43116132    0.80938404
 H                  1.88654356    4.76587132    1.74622404
 C                  0.32092856    3.55907532   -1.59421596
 H                 -0.11819244    3.21678732   -2.52638696
 C                 -7.91071344   -0.25195768   -1.08592496
 H                 -8.98639244   -0.38522368   -1.13786596
 C                 -0.59829944   -5.33868768   -1.39838196
 H                 -0.36076744   -6.05187768   -2.18204296
 C                  1.15351056    5.35543932   -0.19738296
 H                  1.36000956    6.41076732   -0.04648696
 C                  0.58490756    4.91649632   -1.39835396
 H                  0.34746656    5.62968632   -2.18204196
 O                 13.03308661   -1.08269028    3.00265504
 O                  9.03665216    2.33058336    1.58743746
 C                 14.76215226    0.36306169    2.20880660
 C                  9.67891276    0.07380202    2.23070592
 C                 17.09580709   -0.32021917    2.66405319
 C                 12.06251439   -0.25568231    2.51000635
 C                 14.34567516   -0.78442323    2.90330159
 C                 16.62610759    1.69936023    1.31839603
 C                 12.39873253    0.99893411    1.91462244
 C                  7.72422312    2.02878052    1.67784030
 C                  8.28502013   -0.31509277    2.18295899
 C                  7.31543371    0.71089549    1.93969663
 C                 10.76256854   -0.73798407    2.66603542
 C                 11.31210989    1.87642982    1.64613178
 C                 16.16276541    0.58068794    2.06846457
 C                 10.01183028    1.40151750    1.82093199
 C                 16.60162460   -1.44893497    3.38331374
 H                 17.30925784   -2.13557575    3.83730180
 C                 15.65105516    2.54616480    0.70683790
 H                 15.99283344    3.37432620    0.09302016
 C                 14.30031924    2.34059795    0.86645802
 H                 13.61655131    3.00736941    0.36553831
 C                 15.24791713   -1.68510770    3.49586019
 H                 14.85734775   -2.54822047    4.02284886
 C                 13.79804192    1.26769456    1.65738817
 C                 18.47815083   -0.06514089    2.51302491
 H                 19.19286671   -0.74298161    2.97023192
 C                 18.01236003    1.91053841    1.18707945
 H                 18.36772260    2.76049961    0.61211517
 C                 10.58475998   -2.03907739    3.37675983
 C                  5.46369340   -0.89618625    2.14266569
 C                 11.48370770    3.31487426    1.28416497
 C                  7.79434585   -1.64519897    2.32089744
 H                  8.48507374   -2.46615181    2.43034048
 C                  6.81515718    3.08067645    1.46923876
 H                  7.19975950    4.07603576    1.27801669
 C                  4.07967664   -1.15696452    2.14809789
 H                  3.73189426   -2.17498149    2.29638740
 C                 18.92475872    1.03657841    1.78576933
 H                 19.98979963    1.21477619    1.67863555
 C                  5.46278996    2.81480277    1.50641638
 H                  4.74989714    3.61801273    1.34842314
 C                 11.98938760    4.20957146    2.23865692
 H                 12.26370448    3.84217662    3.22328810
 C                  4.97732605    1.49282413    1.73499740
 C                  6.44676332   -1.92073906    2.30290840
 C                 10.03906464   -2.04901930    4.66879848
 H                  9.73901111   -1.11235845    5.12962596
 C                 10.97665952   -3.24908481    2.78629914
 H                 11.40728781   -3.24293422    1.78957782
 C                  3.59729125    1.18654178    1.75606836
 H                  2.87711431    1.98542348    1.60620528
 C                  9.86756488   -3.25506444    5.35246794
 H                  9.44011863   -3.25221481    6.35071770
 C                 10.24323934   -4.46122609    4.75202266
 H                 10.10545545   -5.39935970    5.28121781
 C                 12.15435030    5.55996706    1.92151659
 H                 12.55075555    6.24358906    2.66632845
 C                 11.12489401    3.79274439    0.01560675
 H                 10.72514768    3.10354245   -0.72204808
 C                  3.15994898   -0.12056162    1.96187216
 C                 10.80103386   -4.45500503    3.46861437
 H                 11.09873662   -5.38768125    2.99885473
 C                 11.81202920    6.02840997    0.64877615
 H                 11.94480786    7.07710748    0.40031696
 C                 11.29402452    5.14217427   -0.30231224
 H                 11.02227911    5.50059527   -1.29068155
 C                  5.91726426    0.43907341    1.94248756
 H                  6.11892229   -2.93396372    2.40681241
 H                  2.11146776   -0.33382266    1.97220982

 1 6 1.0 7 1.0
 2 10 1.0 16 1.0
 3 7 1.5 15 1.5 26 1.5
 4 11 1.0 13 1.5 16 1.5
 5 15 1.5 17 1.5 27 1.5
 6 9 1.5 13 1.5
 7 23 1.5
 8 15 1.5 19 1.5 29 1.5
 9 14 1.5 26 1.0
 10 12 1.5 36 1.5
 11 12 1.5 34 1.5
 12 25 1.5
 13 31 1.0
 14 16 1.5 33 1.0
 15
 16
 17 18 1.0 23 2.0
 18
 19 20 1.0 21 2.0
 20
 21 22 1.0 26 1.5
 22
 23 24 1.0
 24
 25 32 1.5 46 1.5
 26
 27 28 1.0 40 1.5
 28
 29 30 1.0 40 1.5
 30
 31 49 1.5 51 1.5
 32 38 1.5 47 1.5
 33 44 1.5 61 1.5
 34 35 1.0 47 2.0
 35
 36 37 1.0 42 2.0
 37
 38 39 1.0 63 1.5
 39
 40 41 1.0
 41
 42 43 1.0 46 1.5
 43
 44 45 1.0 59 1.5
 45
 46 53 1.5
 47 48 1.0
 48
 49 50 1.0 55 1.5
 50
 51 52 1.0 65 1.5
 52
 53 54 1.0 63 1.5
 54
 55 56 1.0 57 1.5
 56
 57 58 1.0 65 1.5
 58
 59 60 1.0 67 1.5
 60
 61 62 1.0 69 1.5
 62
 63 64 1.0
 64
 65 66 1.0
 66
 67 68 1.0 69 1.5
 68
 69 70 1.0
 70
 71 76 1.0 77 1.0
 72 80 1.0 86 1.0
 73 77 1.5 85 1.5 95 1.5
 74 81 1.0 83 1.5 86 1.5
 75 85 1.5 87 1.5 96 1.5
 76 79 1.5 83 1.5
 77 93 1.5
 78 85 1.5 89 1.5 98 1.5
 79 84 1.5 95 1.0
 80 82 1.5 105 1.5
 81 82 1.5 103 1.5
 82 140 1.5
 83 100 1.0
 84 86 1.5 102 1.0
 85
 86
 87 88 1.0 93 2.0
 88
 89 90 1.0 91 2.0
 90
 91 92 1.0 95 1.5
 92
 93 94 1.0
 94
 95
 96 97 1.0 109 1.5
 97
 98 99 1.0 109 1.5
 99
 100 118 1.5 120 1.5
 101 107 1.5 116 1.5 140 1.5
 102 113 1.5 130 1.5
 103 104 1.0 116 2.0
 104
 105 106 1.0 111 2.0
 106
 107 108 1.0 132 1.5
 108
 109 110 1.0
 110
 111 112 1.0 115 1.5
 112
 113 114 1.0 128 1.5
 114
 115 122 1.5 140 1.5
 116 117 1.0
 117
 118 119 1.0 124 1.5
 119
 120 121 1.0 134 1.5
 121
 122 123 1.0 132 1.5
 123
 124 125 1.0 126 1.5
 125
 126 127 1.0 134 1.5
 127
 128 129 1.0 136 1.5
 129
 130 131 1.0 138 1.5
 131
 132 133 1.0
 133
 134 135 1.0
 135
 136 137 1.0 138 1.5
 137
 138 139 1.0
 139
 140















