%chk=/oasis/projects/nsf/lhu120/cmw414/pent_slip_x/n_0_4A/dimer/dimer.chk
%nprocshared=24
%mem=110GB
#p b3lyp/6-311g(d,p) nosymm pop=full iop(3/33=1) punch=mo

c47

0 1
 C                 -8.81924997   -6.66474164    4.01923008
 C                 -8.79124997   -5.80874164    2.96323008
 C                 -8.17024997   -6.12674164    1.72823008
 C                 -8.15524997   -5.22774164    0.64323008
 C                 -7.50024997   -5.56074164   -0.57476992
 C                 -7.45124997   -4.69674164   -1.65676992
 C                 -6.90324997   -6.90474164   -0.70876992
 C                 -7.01824997   -7.74874164    0.34923008
 C                 -7.53924997   -7.44474164    1.59423008
 C                 -7.66524997   -8.31374164    2.68523008
 C                 -8.17724997   -7.99674164    3.89023008
 H                 -9.30924997   -6.34574164    5.08623008
 H                 -9.20024997   -4.78474164    3.05623008
 H                 -8.58924997   -4.21474164    0.77923008
 H                 -7.91824997   -3.67874164   -1.51176992
 H                 -6.56024997   -8.75974164    0.25723008
 H                 -7.20824997   -9.31974164    2.60623008
 H                 -8.18824997   -8.67574164    4.76723008
 C                 -6.85124997   -5.01574164   -2.89476992
 C                 -6.30324997   -7.22374164   -1.94676992
 C                 -6.25324997   -6.36074164   -3.02876992
 C                 -6.73624997   -4.17274164   -3.95276992
 H                 -5.83524997   -8.24274164   -2.09176992
 C                 -5.59924997   -6.69374164   -4.24676992
 C                 -6.21424997   -4.47674164   -5.19776992
 H                 -7.19424997   -3.16174164   -3.86076992
 C                 -5.58424997   -5.79474164   -5.33176992
 H                 -5.16524997   -7.70574164   -4.38276992
 C                 -6.08924997   -3.60774164   -6.28876992
 C                 -4.96324997   -6.11174164   -6.56676992
 C                 -5.57724997   -3.92474164   -7.49376992
 H                 -6.54624997   -2.60174164   -6.20976992
 C                 -4.93524997   -5.25674164   -7.62276992
 H                 -4.55424997   -7.13674164   -6.65976992
 H                 -5.56524997   -3.24574164   -8.37076992
 H                 -4.44524997   -5.57574164   -8.68976992
 C                 -5.55955519   -5.28557798    4.80563065
 C                 -5.53155519   -4.42957798    3.74963065
 C                 -4.91055519   -4.74757798    2.51463065
 C                 -4.89555519   -3.84857798    1.42963065
 C                 -4.24055519   -4.18157798    0.21163065
 C                 -4.19155519   -3.31757798   -0.87036935
 C                 -3.64355519   -5.52557798    0.07763065
 C                 -3.75855519   -6.36957798    1.13563065
 C                 -4.27955519   -6.06557798    2.38063065
 C                 -4.40555519   -6.93457798    3.47163065
 C                 -4.91755519   -6.61757798    4.67663065
 H                 -6.04955519   -4.96657798    5.87263065
 H                 -5.94055519   -3.40557798    3.84263065
 H                 -5.32955519   -2.83557798    1.56563065
 H                 -4.65855519   -2.29957798   -0.72536935
 H                 -3.30055519   -7.38057798    1.04363065
 H                 -3.94855519   -7.94057798    3.39263065
 H                 -4.92855519   -7.29657798    5.55363065
 C                 -3.59155519   -3.63657798   -2.10836935
 C                 -3.04355519   -5.84457798   -1.16036935
 C                 -2.99355519   -4.98157798   -2.24236935
 C                 -3.47655519   -2.79357798   -3.16636935
 H                 -2.57555519   -6.86357798   -1.30536935
 C                 -2.33955519   -5.31457798   -3.46036935
 C                 -2.95455519   -3.09757798   -4.41136935
 H                 -3.93455519   -1.78257798   -3.07436935
 C                 -2.32455519   -4.41557798   -4.54536935
 H                 -1.90555519   -6.32657798   -3.59636935
 C                 -2.82955519   -2.22857798   -5.50236935
 C                 -1.70355519   -4.73257798   -5.78036935
 C                 -2.31755519   -2.54557798   -6.70736935
 H                 -3.28655519   -1.22257798   -5.42336935
 C                 -1.67555519   -3.87757798   -6.83636935
 H                 -1.29455519   -5.75757798   -5.87336935
 H                 -2.30555519   -1.86657798   -7.58436935
 H                 -1.18555519   -4.19657798   -7.90336935

 1 2 2.0 11 1.0 12 1.0
 2 3 1.5 13 1.0
 3 4 1.5 9 1.0
 4 5 1.5 14 1.0
 5 6 2.0 7 1.0
 6 15 1.0 19 1.5
 7 8 2.0 20 1.5
 8 9 2.0 16 1.0
 9 10 1.5
 10 11 2.0 17 1.0
 11 18 1.0
 12
 13
 14
 15
 16
 17
 18
 19 21 1.0 22 2.0
 20 21 2.0 23 1.0
 21 24 1.5
 22 25 2.0 26 1.0
 23
 24 27 1.5 28 1.0
 25 27 1.0 29 1.5
 26
 27 30 1.5
 28
 29 31 2.0 32 1.0
 30 33 2.0 34 1.0
 31 33 1.0 35 1.0
 32
 33 36 1.0
 34
 35
 36
 37 38 2.0 47 1.0 48 1.0
 38 39 1.5 49 1.0
 39 40 1.5 45 1.0
 40 41 1.5 50 1.0
 41 42 2.0 43 1.0
 42 51 1.0 55 1.5
 43 44 2.0 56 1.5
 44 45 2.0 52 1.0
 45 46 1.5
 46 47 2.0 53 1.0
 47 54 1.0
 48
 49
 50
 51
 52
 53
 54
 55 57 1.0 58 2.0
 56 57 2.0 59 1.0
 57 60 1.5
 58 61 2.0 62 1.0
 59
 60 63 1.5 64 1.0
 61 63 1.0 65 1.5
 62
 63 66 1.5
 64
 65 67 2.0 68 1.0
 66 69 2.0 70 1.0
 67 69 1.0 71 1.0
 68
 69 72 1.0
 70
 71
 72

