%chk=/oasis/projects/nsf/lhu120/cmw414/pent_y_stack/n_1_0A/dimer/dimer.chk
%nprocshared=24
%mem=110GB
#p b3lyp/6-311g(d,p) nosymm pop=full iop(3/33=1) punch=mo

c47

0 1
 C                 -9.11818403   -5.66739545    3.73409296
 C                 -9.09018403   -4.81139545    2.67809296
 C                 -8.46918403   -5.12939545    1.44309296
 C                 -8.45418403   -4.23039545    0.35809296
 C                 -7.79918403   -4.56339545   -0.85990704
 C                 -7.75018403   -3.69939545   -1.94190704
 C                 -7.20218403   -5.90739545   -0.99390704
 C                 -7.31718403   -6.75139545    0.06409296
 C                 -7.83818403   -6.44739545    1.30909296
 C                 -7.96418403   -7.31639545    2.40009296
 C                 -8.47618403   -6.99939545    3.60509296
 H                 -9.60818403   -5.34839545    4.80109296
 H                 -9.49918403   -3.78739545    2.77109296
 H                 -8.88818403   -3.21739545    0.49409296
 H                 -8.21718403   -2.68139545   -1.79690704
 H                 -6.85918403   -7.76239545   -0.02790704
 H                 -7.50718403   -8.32239545    2.32109296
 H                 -8.48718403   -7.67839545    4.48209296
 C                 -7.15018403   -4.01839545   -3.17990704
 C                 -6.60218403   -6.22639545   -2.23190704
 C                 -6.55218403   -5.36339545   -3.31390704
 C                 -7.03518403   -3.17539545   -4.23790704
 H                 -6.13418403   -7.24539545   -2.37690704
 C                 -5.89818403   -5.69639545   -4.53190704
 C                 -6.51318403   -3.47939545   -5.48290704
 H                 -7.49318403   -2.16439545   -4.14590704
 C                 -5.88318403   -4.79739545   -5.61690704
 H                 -5.46418403   -6.70839545   -4.66790704
 C                 -6.38818403   -2.61039545   -6.57390704
 C                 -5.26218403   -5.11439545   -6.85190704
 C                 -5.87618403   -2.92739545   -7.77890704
 H                 -6.84518403   -1.60439545   -6.49490704
 C                 -5.23418403   -4.25939545   -7.90790704
 H                 -4.85318403   -6.13939545   -6.94490704
 H                 -5.86418403   -2.24839545   -8.65590704
 H                 -4.74418403   -4.57839545   -8.97490704
 C                 -5.55955519   -5.28557798    4.80563065
 C                 -5.53155519   -4.42957798    3.74963065
 C                 -4.91055519   -4.74757798    2.51463065
 C                 -4.89555519   -3.84857798    1.42963065
 C                 -4.24055519   -4.18157798    0.21163065
 C                 -4.19155519   -3.31757798   -0.87036935
 C                 -3.64355519   -5.52557798    0.07763065
 C                 -3.75855519   -6.36957798    1.13563065
 C                 -4.27955519   -6.06557798    2.38063065
 C                 -4.40555519   -6.93457798    3.47163065
 C                 -4.91755519   -6.61757798    4.67663065
 H                 -6.04955519   -4.96657798    5.87263065
 H                 -5.94055519   -3.40557798    3.84263065
 H                 -5.32955519   -2.83557798    1.56563065
 H                 -4.65855519   -2.29957798   -0.72536935
 H                 -3.30055519   -7.38057798    1.04363065
 H                 -3.94855519   -7.94057798    3.39263065
 H                 -4.92855519   -7.29657798    5.55363065
 C                 -3.59155519   -3.63657798   -2.10836935
 C                 -3.04355519   -5.84457798   -1.16036935
 C                 -2.99355519   -4.98157798   -2.24236935
 C                 -3.47655519   -2.79357798   -3.16636935
 H                 -2.57555519   -6.86357798   -1.30536935
 C                 -2.33955519   -5.31457798   -3.46036935
 C                 -2.95455519   -3.09757798   -4.41136935
 H                 -3.93455519   -1.78257798   -3.07436935
 C                 -2.32455519   -4.41557798   -4.54536935
 H                 -1.90555519   -6.32657798   -3.59636935
 C                 -2.82955519   -2.22857798   -5.50236935
 C                 -1.70355519   -4.73257798   -5.78036935
 C                 -2.31755519   -2.54557798   -6.70736935
 H                 -3.28655519   -1.22257798   -5.42336935
 C                 -1.67555519   -3.87757798   -6.83636935
 H                 -1.29455519   -5.75757798   -5.87336935
 H                 -2.30555519   -1.86657798   -7.58436935
 H                 -1.18555519   -4.19657798   -7.90336935

 1 2 2.0 11 1.0 12 1.0
 2 3 1.5 13 1.0
 3 4 1.5 9 1.0
 4 5 1.5 14 1.0
 5 6 2.0 7 1.0
 6 15 1.0 19 1.5
 7 8 2.0 20 1.5
 8 9 2.0 16 1.0
 9 10 1.5
 10 11 2.0 17 1.0
 11 18 1.0
 12
 13
 14
 15
 16
 17
 18
 19 21 1.0 22 2.0
 20 21 2.0 23 1.0
 21 24 1.5
 22 25 2.0 26 1.0
 23
 24 27 1.5 28 1.0
 25 27 1.0 29 1.5
 26
 27 30 1.5
 28
 29 31 2.0 32 1.0
 30 33 2.0 34 1.0
 31 33 1.0 35 1.0
 32
 33 36 1.0
 34
 35
 36
 37 38 2.0 47 1.0 48 1.0
 38 39 1.5 49 1.0
 39 40 1.5 45 1.0
 40 41 1.5 50 1.0
 41 42 2.0 43 1.0
 42 51 1.0 55 1.5
 43 44 2.0 56 1.5
 44 45 2.0 52 1.0
 45 46 1.5
 46 47 2.0 53 1.0
 47 54 1.0
 48
 49
 50
 51
 52
 53
 54
 55 57 1.0 58 2.0
 56 57 2.0 59 1.0
 57 60 1.5
 58 61 2.0 62 1.0
 59
 60 63 1.5 64 1.0
 61 63 1.0 65 1.5
 62
 63 66 1.5
 64
 65 67 2.0 68 1.0
 66 69 2.0 70 1.0
 67 69 1.0 71 1.0
 68
 69 72 1.0
 70
 71
 72


