%chk=/oasis/projects/nsf/lhu120/cmw414/pent_slip_x/0_1A/dimer/dimer.chk
%nprocshared=24
%mem=110GB
#p b3lyp/6-311g(d,p) nosymm pop=full iop(3/33=1) punch=mo

c47

0 1
 C                 -8.68605818   -6.55509590    3.54993512
 C                 -8.65805818   -5.69909590    2.49393512
 C                 -8.03705818   -6.01709590    1.25893512
 C                 -8.02205818   -5.11809590    0.17393512
 C                 -7.36705818   -5.45109590   -1.04406488
 C                 -7.31805818   -4.58709590   -2.12606488
 C                 -6.77005818   -6.79509590   -1.17806488
 C                 -6.88505818   -7.63909590   -0.12006488
 C                 -7.40605818   -7.33509590    1.12493512
 C                 -7.53205818   -8.20409590    2.21593512
 C                 -8.04405818   -7.88709590    3.42093512
 H                 -9.17605818   -6.23609590    4.61693512
 H                 -9.06705818   -4.67509590    2.58693512
 H                 -8.45605818   -4.10509590    0.30993512
 H                 -7.78505818   -3.56909590   -1.98106488
 H                 -6.42705818   -8.65009590   -0.21206488
 H                 -7.07505818   -9.21009590    2.13693512
 H                 -8.05505818   -8.56609590    4.29793512
 C                 -6.71805818   -4.90609590   -3.36406488
 C                 -6.17005818   -7.11409590   -2.41606488
 C                 -6.12005818   -6.25109590   -3.49806488
 C                 -6.60305818   -4.06309590   -4.42206488
 H                 -5.70205818   -8.13309590   -2.56106488
 C                 -5.46605818   -6.58409590   -4.71606488
 C                 -6.08105818   -4.36709590   -5.66706488
 H                 -7.06105818   -3.05209590   -4.33006488
 C                 -5.45105818   -5.68509590   -5.80106488
 H                 -5.03205818   -7.59609590   -4.85206488
 C                 -5.95605818   -3.49809590   -6.75806488
 C                 -4.83005818   -6.00209590   -7.03606488
 C                 -5.44405818   -3.81509590   -7.96306488
 H                 -6.41305818   -2.49209590   -6.67906488
 C                 -4.80205818   -5.14709590   -8.09206488
 H                 -4.42105818   -7.02709590   -7.12906488
 H                 -5.43205818   -3.13609590   -8.84006488
 H                 -4.31205818   -5.46609590   -9.15906488
 C                 -5.55955519   -5.28557798    4.80563065
 C                 -5.53155519   -4.42957798    3.74963065
 C                 -4.91055519   -4.74757798    2.51463065
 C                 -4.89555519   -3.84857798    1.42963065
 C                 -4.24055519   -4.18157798    0.21163065
 C                 -4.19155519   -3.31757798   -0.87036935
 C                 -3.64355519   -5.52557798    0.07763065
 C                 -3.75855519   -6.36957798    1.13563065
 C                 -4.27955519   -6.06557798    2.38063065
 C                 -4.40555519   -6.93457798    3.47163065
 C                 -4.91755519   -6.61757798    4.67663065
 H                 -6.04955519   -4.96657798    5.87263065
 H                 -5.94055519   -3.40557798    3.84263065
 H                 -5.32955519   -2.83557798    1.56563065
 H                 -4.65855519   -2.29957798   -0.72536935
 H                 -3.30055519   -7.38057798    1.04363065
 H                 -3.94855519   -7.94057798    3.39263065
 H                 -4.92855519   -7.29657798    5.55363065
 C                 -3.59155519   -3.63657798   -2.10836935
 C                 -3.04355519   -5.84457798   -1.16036935
 C                 -2.99355519   -4.98157798   -2.24236935
 C                 -3.47655519   -2.79357798   -3.16636935
 H                 -2.57555519   -6.86357798   -1.30536935
 C                 -2.33955519   -5.31457798   -3.46036935
 C                 -2.95455519   -3.09757798   -4.41136935
 H                 -3.93455519   -1.78257798   -3.07436935
 C                 -2.32455519   -4.41557798   -4.54536935
 H                 -1.90555519   -6.32657798   -3.59636935
 C                 -2.82955519   -2.22857798   -5.50236935
 C                 -1.70355519   -4.73257798   -5.78036935
 C                 -2.31755519   -2.54557798   -6.70736935
 H                 -3.28655519   -1.22257798   -5.42336935
 C                 -1.67555519   -3.87757798   -6.83636935
 H                 -1.29455519   -5.75757798   -5.87336935
 H                 -2.30555519   -1.86657798   -7.58436935
 H                 -1.18555519   -4.19657798   -7.90336935

 1 2 2.0 11 1.0 12 1.0
 2 3 1.5 13 1.0
 3 4 1.5 9 1.0
 4 5 1.5 14 1.0
 5 6 2.0 7 1.0
 6 15 1.0 19 1.5
 7 8 2.0 20 1.5
 8 9 2.0 16 1.0
 9 10 1.5
 10 11 2.0 17 1.0
 11 18 1.0
 12
 13
 14
 15
 16
 17
 18
 19 21 1.0 22 2.0
 20 21 2.0 23 1.0
 21 24 1.5
 22 25 2.0 26 1.0
 23
 24 27 1.5 28 1.0
 25 27 1.0 29 1.5
 26
 27 30 1.5
 28
 29 31 2.0 32 1.0
 30 33 2.0 34 1.0
 31 33 1.0 35 1.0
 32
 33 36 1.0
 34
 35
 36
 37 38 2.0 47 1.0 48 1.0
 38 39 1.5 49 1.0
 39 40 1.5 45 1.0
 40 41 1.5 50 1.0
 41 42 2.0 43 1.0
 42 51 1.0 55 1.5
 43 44 2.0 56 1.5
 44 45 2.0 52 1.0
 45 46 1.5
 46 47 2.0 53 1.0
 47 54 1.0
 48
 49
 50
 51
 52
 53
 54
 55 57 1.0 58 2.0
 56 57 2.0 59 1.0
 57 60 1.5
 58 61 2.0 62 1.0
 59
 60 63 1.5 64 1.0
 61 63 1.0 65 1.5
 62
 63 66 1.5
 64
 65 67 2.0 68 1.0
 66 69 2.0 70 1.0
 67 69 1.0 71 1.0
 68
 69 72 1.0
 70
 71
 72

