%chk=/oasis/projects/nsf/lhu120/cmw414/pent_stack/2_2A/dimer/dimer.chk
%nprocshared=24
%mem=110GB
#p b3lyp/6-311g(d,p) nosymm pop=full iop(3/33=1) punch=mo

c47

0 1
 C                 -8.71269653   -6.57702505    3.64379411
 C                 -8.68469653   -5.72102505    2.58779411
 C                 -8.06369653   -6.03902505    1.35279411
 C                 -8.04869653   -5.14002505    0.26779411
 C                 -7.39369653   -5.47302505   -0.95020589
 C                 -7.34469653   -4.60902505   -2.03220589
 C                 -6.79669653   -6.81702505   -1.08420589
 C                 -6.91169653   -7.66102505   -0.02620589
 C                 -7.43269653   -7.35702505    1.21879411
 C                 -7.55869653   -8.22602505    2.30979411
 C                 -8.07069653   -7.90902505    3.51479411
 H                 -9.20269653   -6.25802505    4.71079411
 H                 -9.09369653   -4.69702505    2.68079411
 H                 -8.48269653   -4.12702505    0.40379411
 H                 -7.81169653   -3.59102505   -1.88720589
 H                 -6.45369653   -8.67202505   -0.11820589
 H                 -7.10169653   -9.23202505    2.23079411
 H                 -8.08169653   -8.58802505    4.39179411
 C                 -6.74469653   -4.92802505   -3.27020589
 C                 -6.19669653   -7.13602505   -2.32220589
 C                 -6.14669653   -6.27302505   -3.40420589
 C                 -6.62969653   -4.08502505   -4.32820589
 H                 -5.72869653   -8.15502505   -2.46720589
 C                 -5.49269653   -6.60602505   -4.62220589
 C                 -6.10769653   -4.38902505   -5.57320589
 H                 -7.08769653   -3.07402505   -4.23620589
 C                 -5.47769653   -5.70702505   -5.70720589
 H                 -5.05869653   -7.61802505   -4.75820589
 C                 -5.98269653   -3.52002505   -6.66420589
 C                 -4.85669653   -6.02402505   -6.94220589
 C                 -5.47069653   -3.83702505   -7.86920589
 H                 -6.43969653   -2.51402505   -6.58520589
 C                 -4.82869653   -5.16902505   -7.99820589
 H                 -4.44769653   -7.04902505   -7.03520589
 H                 -5.45869653   -3.15802505   -8.74620589
 H                 -4.33869653   -5.48802505   -9.06520589
 C                 -6.78577982   -5.78780863    4.35380423
 C                 -6.75777982   -4.93180863    3.29780423
 C                 -6.13677982   -5.24980863    2.06280423
 C                 -6.12177982   -4.35080863    0.97780423
 C                 -5.46677982   -4.68380863   -0.24019577
 C                 -5.41777982   -3.81980863   -1.32219577
 C                 -4.86977982   -6.02780863   -0.37419577
 C                 -4.98477982   -6.87180863    0.68380423
 C                 -5.50577982   -6.56780863    1.92880423
 C                 -5.63177982   -7.43680863    3.01980423
 C                 -6.14377982   -7.11980863    4.22480423
 H                 -7.27577982   -5.46880863    5.42080423
 H                 -7.16677982   -3.90780863    3.39080423
 H                 -6.55577982   -3.33780863    1.11380423
 H                 -5.88477982   -2.80180863   -1.17719577
 H                 -4.52677982   -7.88280863    0.59180423
 H                 -5.17477982   -8.44280863    2.94080423
 H                 -6.15477982   -7.79880863    5.10180423
 C                 -4.81777982   -4.13880863   -2.56019577
 C                 -4.26977982   -6.34680863   -1.61219577
 C                 -4.21977982   -5.48380863   -2.69419577
 C                 -4.70277982   -3.29580863   -3.61819577
 H                 -3.80177982   -7.36580863   -1.75719577
 C                 -3.56577982   -5.81680863   -3.91219577
 C                 -4.18077982   -3.59980863   -4.86319577
 H                 -5.16077982   -2.28480863   -3.52619577
 C                 -3.55077982   -4.91780863   -4.99719577
 H                 -3.13177982   -6.82880863   -4.04819577
 C                 -4.05577982   -2.73080863   -5.95419577
 C                 -2.92977982   -5.23480863   -6.23219577
 C                 -3.54377982   -3.04780863   -7.15919577
 H                 -4.51277982   -1.72480863   -5.87519577
 C                 -2.90177982   -4.37980863   -7.28819577
 H                 -2.52077982   -6.25980863   -6.32519577
 H                 -3.53177982   -2.36880863   -8.03619577
 H                 -2.41177982   -4.69880863   -8.35519577

 1 2 2.0 11 1.0 12 1.0
 2 3 1.5 13 1.0
 3 4 1.5 9 1.0
 4 5 1.5 14 1.0
 5 6 2.0 7 1.0
 6 15 1.0 19 1.5
 7 8 2.0 20 1.5
 8 9 2.0 16 1.0
 9 10 1.5
 10 11 2.0 17 1.0
 11 18 1.0
 12
 13
 14
 15
 16
 17
 18
 19 21 1.0 22 2.0
 20 21 2.0 23 1.0
 21 24 1.5
 22 25 2.0 26 1.0
 23
 24 27 1.5 28 1.0
 25 27 1.0 29 1.5
 26
 27 30 1.5
 28
 29 31 2.0 32 1.0
 30 33 2.0 34 1.0
 31 33 1.0 35 1.0
 32
 33 36 1.0
 34
 35
 36
 37 38 2.0 47 1.0 48 1.0
 38 39 1.5 49 1.0
 39 40 1.5 45 1.0
 40 41 1.5 50 1.0
 41 42 2.0 43 1.0
 42 51 1.0 55 1.5
 43 44 2.0 56 1.5
 44 45 2.0 52 1.0
 45 46 1.5
 46 47 2.0 53 1.0
 47 54 1.0
 48
 49
 50
 51
 52
 53
 54
 55 57 1.0 58 2.0
 56 57 2.0 59 1.0
 57 60 1.5
 58 61 2.0 62 1.0
 59
 60 63 1.5 64 1.0
 61 63 1.0 65 1.5
 62
 63 66 1.5
 64
 65 67 2.0 68 1.0
 66 69 2.0 70 1.0
 67 69 1.0 71 1.0
 68
 69 72 1.0
 70
 71
 72


