%chk=/oasis/projects/nsf/lhu120/cmw414/pent_y_stack/n_0_2A/dimer/dimer.chk
%nprocshared=24
%mem=110GB
#p b3lyp/6-311g(d,p) nosymm pop=full iop(3/33=1) punch=mo

c47

0 1
 C                 -8.79379407   -6.39509914    3.66185388
 C                 -8.76579407   -5.53909914    2.60585388
 C                 -8.14479407   -5.85709914    1.37085388
 C                 -8.12979407   -4.95809914    0.28585388
 C                 -7.47479407   -5.29109914   -0.93214612
 C                 -7.42579407   -4.42709914   -2.01414612
 C                 -6.87779407   -6.63509914   -1.06614612
 C                 -6.99279407   -7.47909914   -0.00814612
 C                 -7.51379407   -7.17509914    1.23685388
 C                 -7.63979407   -8.04409914    2.32785388
 C                 -8.15179407   -7.72709914    3.53285388
 H                 -9.28379407   -6.07609914    4.72885388
 H                 -9.17479407   -4.51509914    2.69885388
 H                 -8.56379407   -3.94509914    0.42185388
 H                 -7.89279407   -3.40909914   -1.86914612
 H                 -6.53479407   -8.49009914   -0.10014612
 H                 -7.18279407   -9.05009914    2.24885388
 H                 -8.16279407   -8.40609914    4.40985388
 C                 -6.82579407   -4.74609914   -3.25214612
 C                 -6.27779407   -6.95409914   -2.30414612
 C                 -6.22779407   -6.09109914   -3.38614612
 C                 -6.71079407   -3.90309914   -4.31014612
 H                 -5.80979407   -7.97309914   -2.44914612
 C                 -5.57379407   -6.42409914   -4.60414612
 C                 -6.18879407   -4.20709914   -5.55514612
 H                 -7.16879407   -2.89209914   -4.21814612
 C                 -5.55879407   -5.52509914   -5.68914612
 H                 -5.13979407   -7.43609914   -4.74014612
 C                 -6.06379407   -3.33809914   -6.64614612
 C                 -4.93779407   -5.84209914   -6.92414612
 C                 -5.55179407   -3.65509914   -7.85114612
 H                 -6.52079407   -2.33209914   -6.56714612
 C                 -4.90979407   -4.98709914   -7.98014612
 H                 -4.52879407   -6.86709914   -7.01714612
 H                 -5.53979407   -2.97609914   -8.72814612
 H                 -4.41979407   -5.30609914   -9.04714612
 C                 -5.55955519   -5.28557798    4.80563065
 C                 -5.53155519   -4.42957798    3.74963065
 C                 -4.91055519   -4.74757798    2.51463065
 C                 -4.89555519   -3.84857798    1.42963065
 C                 -4.24055519   -4.18157798    0.21163065
 C                 -4.19155519   -3.31757798   -0.87036935
 C                 -3.64355519   -5.52557798    0.07763065
 C                 -3.75855519   -6.36957798    1.13563065
 C                 -4.27955519   -6.06557798    2.38063065
 C                 -4.40555519   -6.93457798    3.47163065
 C                 -4.91755519   -6.61757798    4.67663065
 H                 -6.04955519   -4.96657798    5.87263065
 H                 -5.94055519   -3.40557798    3.84263065
 H                 -5.32955519   -2.83557798    1.56563065
 H                 -4.65855519   -2.29957798   -0.72536935
 H                 -3.30055519   -7.38057798    1.04363065
 H                 -3.94855519   -7.94057798    3.39263065
 H                 -4.92855519   -7.29657798    5.55363065
 C                 -3.59155519   -3.63657798   -2.10836935
 C                 -3.04355519   -5.84457798   -1.16036935
 C                 -2.99355519   -4.98157798   -2.24236935
 C                 -3.47655519   -2.79357798   -3.16636935
 H                 -2.57555519   -6.86357798   -1.30536935
 C                 -2.33955519   -5.31457798   -3.46036935
 C                 -2.95455519   -3.09757798   -4.41136935
 H                 -3.93455519   -1.78257798   -3.07436935
 C                 -2.32455519   -4.41557798   -4.54536935
 H                 -1.90555519   -6.32657798   -3.59636935
 C                 -2.82955519   -2.22857798   -5.50236935
 C                 -1.70355519   -4.73257798   -5.78036935
 C                 -2.31755519   -2.54557798   -6.70736935
 H                 -3.28655519   -1.22257798   -5.42336935
 C                 -1.67555519   -3.87757798   -6.83636935
 H                 -1.29455519   -5.75757798   -5.87336935
 H                 -2.30555519   -1.86657798   -7.58436935
 H                 -1.18555519   -4.19657798   -7.90336935

 1 2 2.0 11 1.0 12 1.0
 2 3 1.5 13 1.0
 3 4 1.5 9 1.0
 4 5 1.5 14 1.0
 5 6 2.0 7 1.0
 6 15 1.0 19 1.5
 7 8 2.0 20 1.5
 8 9 2.0 16 1.0
 9 10 1.5
 10 11 2.0 17 1.0
 11 18 1.0
 12
 13
 14
 15
 16
 17
 18
 19 21 1.0 22 2.0
 20 21 2.0 23 1.0
 21 24 1.5
 22 25 2.0 26 1.0
 23
 24 27 1.5 28 1.0
 25 27 1.0 29 1.5
 26
 27 30 1.5
 28
 29 31 2.0 32 1.0
 30 33 2.0 34 1.0
 31 33 1.0 35 1.0
 32
 33 36 1.0
 34
 35
 36
 37 38 2.0 47 1.0 48 1.0
 38 39 1.5 49 1.0
 39 40 1.5 45 1.0
 40 41 1.5 50 1.0
 41 42 2.0 43 1.0
 42 51 1.0 55 1.5
 43 44 2.0 56 1.5
 44 45 2.0 52 1.0
 45 46 1.5
 46 47 2.0 53 1.0
 47 54 1.0
 48
 49
 50
 51
 52
 53
 54
 55 57 1.0 58 2.0
 56 57 2.0 59 1.0
 57 60 1.5
 58 61 2.0 62 1.0
 59
 60 63 1.5 64 1.0
 61 63 1.0 65 1.5
 62
 63 66 1.5
 64
 65 67 2.0 68 1.0
 66 69 2.0 70 1.0
 67 69 1.0 71 1.0
 68
 69 72 1.0
 70
 71
 72


