%chk=/oasis/projects/nsf/lhu120/cmw414/rc_slip_y_90/5_0A/dimer/dimer.chk
%mem=110GB
#p b3lyp/6-311g(d,p) nosymm pop=full iop(3/33=1) punch=mo

c47

2 1
 O                  1.86343256   -2.18814168   -0.63312396
 O                 -1.87688744    1.76594132   -0.63317696
 C                  3.69461456   -0.67140268   -0.87047896
 C                 -1.39648944   -0.60712468   -0.87219696
 C                  5.97175156   -1.62878468   -0.73581696
 C                  0.95630456   -1.17504168   -0.77241696
 C                  3.19421256   -1.96292068   -0.63793396
 C                  5.65376956    0.77013232   -1.23999596
 C                  1.38305156    0.18492932   -0.87218096
 C                 -3.20766744    1.54071032   -0.63799196
 C                 -2.81321944   -0.85705968   -1.03609996
 C                 -3.70805744    0.24918032   -0.87049696
 C                 -0.37497644   -1.59266368   -0.78251796
 C                  0.36153156    1.17047132   -0.78252296
 C                  5.10807156   -0.51188368   -0.94441996
 C                 -0.96975044    0.75284632   -0.77244796
 C                  5.39488456   -2.90675768   -0.47207296
 H                  6.04966056   -3.75780568   -0.31297796
 C                  4.74462556    1.84550032   -1.48258496
 H                  5.14791656    2.81613132   -1.75583896
 C                  3.38157356    1.68676032   -1.38711396
 H                  2.74968056    2.53497832   -1.59754396
 C                  4.02720956   -3.07643968   -0.43155996
 H                  3.57365556   -4.04439768   -0.25108496
 C                 -5.12151244    0.08963932   -0.94441896
 C                  2.79978656    0.43484332   -1.03611196
 C                  7.36964356   -1.42936968   -0.80567596
 H                  8.03205756   -2.27390668   -0.64047896
 C                  7.05237556    0.92132132   -1.30766596
 H                  7.47035056    1.89702532   -1.53701096
 C                 -0.64793744   -3.04866968   -0.59509396
 C                 -5.66719544   -1.19239768   -1.23993096
 C                  0.63446856    2.62647732   -0.59506596
 C                 -3.39498944   -2.10900768   -1.38701396
 H                 -2.76308144   -2.95723068   -1.59738596
 C                 -4.04067744    2.65422632   -0.43164996
 H                 -3.58713344    3.62219432   -0.25120396
 C                 -7.06580044   -1.34360768   -1.30758296
 H                 -7.48376544   -2.31932768   -1.53687896
 C                  7.89727656   -0.17032768   -1.08596396
 H                  8.97295756   -0.03707868   -1.13791896
 C                 -5.40835044    2.48452732   -0.47215796
 H                 -6.06313544    3.33557232   -0.31308796
 C                  1.19132356    3.07285032    0.61237504
 H                  1.43075056    2.35253132    1.38925504
 C                 -5.98520444    1.20653832   -0.73585396
 C                 -4.75804044   -2.26777068   -1.48246496
 H                 -5.16132144   -3.23842268   -1.75565596
 C                 -1.20495544   -3.49503768    0.61227204
 H                 -1.44447744   -2.77471768    1.38912204
 C                 -0.33428944   -3.98126668   -1.59421096
 H                  0.10494656   -3.63898068   -2.52632896
 C                 -7.38309444    1.00710232   -0.80569496
 H                 -8.04551744    1.85163832   -0.64052696
 C                 -1.46487044   -4.85334768    0.80924704
 H                 -1.90033044   -5.18805568    1.74603204
 C                 -1.16705344   -5.77762768   -0.19748196
 H                 -1.37357744   -6.83295368   -0.04661296
 C                  1.45120356    4.43116132    0.80938404
 H                  1.88654356    4.76587132    1.74622404
 C                  0.32092856    3.55907532   -1.59421596
 H                 -0.11819244    3.21678732   -2.52638696
 C                 -7.91071344   -0.25195768   -1.08592496
 H                 -8.98639244   -0.38522368   -1.13786596
 C                 -0.59829944   -5.33868768   -1.39838196
 H                 -0.36076744   -6.05187768   -2.18204296
 C                  1.15351056    5.35543932   -0.19738296
 H                  1.36000956    6.41076732   -0.04648696
 C                  0.58490756    4.91649632   -1.39835396
 H                  0.34746656    5.62968632   -2.18204196
 O                 14.38707099   -5.72087144    3.61653608
 O                 10.39063654   -2.30759780    2.20131850
 C                 16.11613664   -4.27511947    2.82268764
 C                 11.03289714   -4.56437914    2.84458696
 C                 18.44979147   -4.95840033    3.27793423
 C                 13.41649877   -4.89386347    3.12388739
 C                 15.69965954   -5.42260439    3.51718263
 C                 17.98009197   -2.93882093    1.93227707
 C                 13.75271691   -3.63924705    2.52850348
 C                  9.07820750   -2.60940064    2.29172134
 C                  9.63900451   -4.95327393    2.79684003
 C                  8.66941809   -3.92728567    2.55357767
 C                 12.11655292   -5.37616523    3.27991646
 C                 12.66609427   -2.76175134    2.26001282
 C                 17.51674979   -4.05749322    2.68234561
 C                 11.36581466   -3.23666366    2.43481303
 C                 17.95560898   -6.08711613    3.99719478
 H                 18.66324222   -6.77375691    4.45118284
 C                 17.00503954   -2.09201636    1.32071894
 H                 17.34681782   -1.26385496    0.70690120
 C                 15.65430362   -2.29758321    1.48033906
 H                 14.97053569   -1.63081175    0.97941935
 C                 16.60190151   -6.32328886    4.10974123
 H                 16.21133213   -7.18640163    4.63672990
 C                 15.15202630   -3.37048660    2.27126921
 C                 19.83213521   -4.70332205    3.12690595
 H                 20.54685109   -5.38116277    3.58411296
 C                 19.36634441   -2.72764275    1.80096049
 H                 19.72170698   -1.87768155    1.22599621
 C                 11.93874436   -6.67725855    3.99064087
 C                  6.81767778   -5.53436741    2.75654673
 C                 12.83769208   -1.32330690    1.89804601
 C                  9.14833023   -6.28338013    2.93477848
 H                  9.83905812   -7.10433297    3.04422152
 C                  8.16914156   -1.55750471    2.08311980
 H                  8.55374388   -0.56214540    1.89189773
 C                  5.43366102   -5.79514568    2.76197893
 H                  5.08587864   -6.81316265    2.91026844
 C                 20.27874310   -3.60160275    2.39965037
 H                 21.34378401   -3.42340497    2.29251659
 C                  6.81677434   -1.82337839    2.12029742
 H                  6.10388152   -1.02016843    1.96230418
 C                 13.34337198   -0.42860970    2.85253796
 H                 13.61768886   -0.79600454    3.83716914
 C                  6.33131043   -3.14535703    2.34887844
 C                  7.80074770   -6.55892022    2.91678944
 C                 11.39304902   -6.68720046    5.28267952
 H                 11.09299549   -5.75053961    5.74350700
 C                 12.33064390   -7.88726597    3.40018018
 H                 12.76127219   -7.88111538    2.40345886
 C                  4.95127563   -3.45163938    2.36994940
 H                  4.23109869   -2.65275768    2.22008632
 C                 11.22154926   -7.89324560    5.96634898
 H                 10.79410301   -7.89039597    6.96459874
 C                 11.59722372   -9.09940725    5.36590370
 H                 11.45943983  -10.03754086    5.89509885
 C                 13.50833468    0.92178590    2.53539763
 H                 13.90473993    1.60540790    3.28020949
 C                 12.47887839   -0.84543677    0.62948779
 H                 12.07913206   -1.53463871   -0.10816704
 C                  4.51393336   -4.75874278    2.57575320
 C                 12.15501824   -9.09318619    4.08249541
 H                 12.45272100  -10.02586241    3.61273577
 C                 13.16601358    1.39022881    1.26265719
 H                 13.29879224    2.43892632    1.01419800
 C                 12.64800890    0.50399311    0.31156880
 H                 12.37626349    0.86241411   -0.67680051
 C                  7.27124864   -4.19910775    2.55636860
 H                  7.47290667   -7.57214488    3.02069345
 H                  3.46545214   -4.97200382    2.58609086

 1 6 1.0 7 1.0
 2 10 1.0 16 1.0
 3 7 1.5 15 1.5 26 1.5
 4 11 1.0 13 1.5 16 1.5
 5 15 1.5 17 1.5 27 1.5
 6 9 1.5 13 1.5
 7 23 1.5
 8 15 1.5 19 1.5 29 1.5
 9 14 1.5 26 1.0
 10 12 1.5 36 1.5
 11 12 1.5 34 1.5
 12 25 1.5
 13 31 1.0
 14 16 1.5 33 1.0
 15
 16
 17 18 1.0 23 2.0
 18
 19 20 1.0 21 2.0
 20
 21 22 1.0 26 1.5
 22
 23 24 1.0
 24
 25 32 1.5 46 1.5
 26
 27 28 1.0 40 1.5
 28
 29 30 1.0 40 1.5
 30
 31 49 1.5 51 1.5
 32 38 1.5 47 1.5
 33 44 1.5 61 1.5
 34 35 1.0 47 2.0
 35
 36 37 1.0 42 2.0
 37
 38 39 1.0 63 1.5
 39
 40 41 1.0
 41
 42 43 1.0 46 1.5
 43
 44 45 1.0 59 1.5
 45
 46 53 1.5
 47 48 1.0
 48
 49 50 1.0 55 1.5
 50
 51 52 1.0 65 1.5
 52
 53 54 1.0 63 1.5
 54
 55 56 1.0 57 1.5
 56
 57 58 1.0 65 1.5
 58
 59 60 1.0 67 1.5
 60
 61 62 1.0 69 1.5
 62
 63 64 1.0
 64
 65 66 1.0
 66
 67 68 1.0 69 1.5
 68
 69 70 1.0
 70
 71 76 1.0 77 1.0
 72 80 1.0 86 1.0
 73 77 1.5 85 1.5 95 1.5
 74 81 1.0 83 1.5 86 1.5
 75 85 1.5 87 1.5 96 1.5
 76 79 1.5 83 1.5
 77 93 1.5
 78 85 1.5 89 1.5 98 1.5
 79 84 1.5 95 1.0
 80 82 1.5 105 1.5
 81 82 1.5 103 1.5
 82 140 1.5
 83 100 1.0
 84 86 1.5 102 1.0
 85
 86
 87 88 1.0 93 2.0
 88
 89 90 1.0 91 2.0
 90
 91 92 1.0 95 1.5
 92
 93 94 1.0
 94
 95
 96 97 1.0 109 1.5
 97
 98 99 1.0 109 1.5
 99
 100 118 1.5 120 1.5
 101 107 1.5 116 1.5 140 1.5
 102 113 1.5 130 1.5
 103 104 1.0 116 2.0
 104
 105 106 1.0 111 2.0
 106
 107 108 1.0 132 1.5
 108
 109 110 1.0
 110
 111 112 1.0 115 1.5
 112
 113 114 1.0 128 1.5
 114
 115 122 1.5 140 1.5
 116 117 1.0
 117
 118 119 1.0 124 1.5
 119
 120 121 1.0 134 1.5
 121
 122 123 1.0 132 1.5
 123
 124 125 1.0 126 1.5
 125
 126 127 1.0 134 1.5
 127
 128 129 1.0 136 1.5
 129
 130 131 1.0 138 1.5
 131
 132 133 1.0
 133
 134 135 1.0
 135
 136 137 1.0 138 1.5
 137
 138 139 1.0
 139
 140















































