%chk=/home/cmw414/pcpl_transfer_integral/rc_stack/4_9A/dimer/dimer.chk
%nprocshared=20
%mem=110GB
#p b3lyp/6-311g(d,p) nosymm pop=full iop(3/33=1) punch=mo

c47

2 1
 O                  1.84744772   -2.68953192   -2.46570474
 O                 -1.89287228    1.26455108   -2.46575774
 C                  3.67862972   -1.17279292   -2.70305974
 C                 -1.41247428   -1.10851492   -2.70477774
 C                  5.95576672   -2.13017492   -2.56839774
 C                  0.94031972   -1.67643192   -2.60499774
 C                  3.17822772   -2.46431092   -2.47051474
 C                  5.63778472    0.26874208   -3.07257674
 C                  1.36706672   -0.31646092   -2.70476174
 C                 -3.22365228    1.03932008   -2.47057274
 C                 -2.82920428   -1.35844992   -2.86868074
 C                 -3.72404228   -0.25220992   -2.70307774
 C                 -0.39096128   -2.09405392   -2.61509874
 C                  0.34554672    0.66908108   -2.61510374
 C                  5.09208672   -1.01327392   -2.77700074
 C                 -0.98573528    0.25145608   -2.60502874
 C                  5.37889972   -3.40814792   -2.30465374
 H                  6.03367572   -4.25919592   -2.14555874
 C                  4.72864072    1.34411008   -3.31516574
 H                  5.13193172    2.31474108   -3.58841974
 C                  3.36558872    1.18537008   -3.21969474
 H                  2.73369572    2.03358808   -3.43012474
 C                  4.01122472   -3.57782992   -2.26414074
 H                  3.55767072   -4.54578792   -2.08366574
 C                 -5.13749728   -0.41175092   -2.77699974
 C                  2.78380172   -0.06654692   -2.86869274
 C                  7.35365872   -1.93075992   -2.63825674
 H                  8.01607272   -2.77529692   -2.47305974
 C                  7.03639072    0.41993108   -3.14024674
 H                  7.45436572    1.39563508   -3.36959174
 C                 -0.66392228   -3.55005992   -2.42767474
 C                 -5.68318028   -1.69378792   -3.07251174
 C                  0.61848372    2.12508708   -2.42764674
 C                 -3.41097428   -2.61039792   -3.21959474
 H                 -2.77906628   -3.45862092   -3.42996674
 C                 -4.05666228    2.15283608   -2.26423074
 H                 -3.60311828    3.12080408   -2.08378474
 C                 -7.08178528   -1.84499792   -3.14016374
 H                 -7.49975028   -2.82071792   -3.36945974
 C                  7.88129172   -0.67171792   -2.91854474
 H                  8.95697272   -0.53846892   -2.97049974
 C                 -5.42433528    1.98313708   -2.30473874
 H                 -6.07912028    2.83418208   -2.14566874
 C                  1.17533872    2.57146008   -1.22020574
 H                  1.41476572    1.85114108   -0.44332574
 C                 -6.00118928    0.70514808   -2.56843474
 C                 -4.77402528   -2.76916092   -3.31504574
 H                 -5.17730628   -3.73981292   -3.58823674
 C                 -1.22094028   -3.99642792   -1.22030874
 H                 -1.46046228   -3.27610792   -0.44345874
 C                 -0.35027428   -4.48265692   -3.42679174
 H                  0.08896172   -4.14037092   -4.35890974
 C                 -7.39907928    0.50571208   -2.63827574
 H                 -8.06150228    1.35024808   -2.47310774
 C                 -1.48085528   -5.35473792   -1.02333374
 H                 -1.91631528   -5.68944592   -0.08654874
 C                 -1.18303828   -6.27901792   -2.03006274
 H                 -1.38956228   -7.33434392   -1.87919374
 C                  1.43521872    3.92977108   -1.02319674
 H                  1.87055872    4.26448108   -0.08635674
 C                  0.30494372    3.05768508   -3.42679674
 H                 -0.13417728    2.71539708   -4.35896774
 C                 -7.92669828   -0.75334792   -2.91850574
 H                 -9.00237728   -0.88661392   -2.97044674
 C                 -0.61428428   -5.84007792   -3.23096274
 H                 -0.37675228   -6.55326792   -4.01462374
 C                  1.13752572    4.85404908   -2.02996374
 H                  1.34402472    5.90937708   -1.87906774
 C                  0.56892272    4.41510608   -3.23093474
 H                  0.33148172    5.12829608   -4.01462274
 O                 12.24913308   -1.24197860    3.00929613
 O                  8.25269863    2.17129504    1.59407855
 C                 13.97819873    0.20377337    2.21544769
 C                  8.89495923   -0.08548630    2.23734701
 C                 16.31185356   -0.47950749    2.67069428
 C                 11.27856086   -0.41497063    2.51664744
 C                 13.56172163   -0.94371155    2.90994268
 C                 15.84215406    1.54007191    1.32503712
 C                 11.61477900    0.83964579    1.92126353
 C                  6.94026959    1.86949220    1.68448139
 C                  7.50106660   -0.47438109    2.18960008
 C                  6.53148018    0.55160717    1.94633772
 C                  9.97861501   -0.89727239    2.67267651
 C                 10.52815636    1.71714150    1.65277287
 C                 15.37881188    0.42139962    2.07510566
 C                  9.22787675    1.24222918    1.82757308
 C                 15.81767107   -1.60822329    3.38995483
 H                 16.52530431   -2.29486407    3.84394289
 C                 14.86710163    2.38687648    0.71347899
 H                 15.20887991    3.21503788    0.09966125
 C                 13.51636571    2.18130963    0.87309911
 H                 12.83259778    2.84808109    0.37217940
 C                 14.46396360   -1.84439602    3.50250128
 H                 14.07339422   -2.70750879    4.02948995
 C                 13.01408839    1.10840624    1.66402926
 C                 17.69419730   -0.22442921    2.51966600
 H                 18.40891318   -0.90226993    2.97687301
 C                 17.22840650    1.75125009    1.19372054
 H                 17.58376907    2.60121129    0.61875626
 C                  9.80080645   -2.19836571    3.38340092
 C                  4.67973987   -1.05547457    2.14930678
 C                 10.69975417    3.15558594    1.29080606
 C                  7.01039232   -1.80448729    2.32753853
 H                  7.70112021   -2.62544013    2.43698157
 C                  6.03120365    2.92138813    1.47587985
 H                  6.41580597    3.91674744    1.28465778
 C                  3.29572311   -1.31625284    2.15473898
 H                  2.94794073   -2.33426981    2.30302849
 C                 18.14080519    0.87729009    1.79241042
 H                 19.20584610    1.05548787    1.68527664
 C                  4.67883643    2.65551445    1.51305747
 H                  3.96594361    3.45872441    1.35506423
 C                 11.20543407    4.05028314    2.24529801
 H                 11.47975095    3.68288830    3.22992919
 C                  4.19337252    1.33353581    1.74163849
 C                  5.66280979   -2.08002738    2.30954949
 H                  5.33006108   -3.10841972    2.41500891
 C                  9.25511111   -2.20830762    4.67543957
 H                  8.95505758   -1.27164677    5.13626705
 C                 10.19270599   -3.40837313    2.79294023
 H                 10.62333428   -3.40222254    1.79621891
 C                  2.81333772    1.02725346    1.76270945
 H                  2.09316078    1.82613516    1.61284637
 C                  9.08361135   -3.41435276    5.35910903
 H                  8.65616510   -3.41150313    6.35735879
 C                  9.45928581   -4.62051441    4.75866375
 H                  9.32150192   -5.55864802    5.28785890
 C                 11.37039677    5.40067874    1.92815768
 H                 11.76680202    6.08430074    2.67296954
 C                 10.34094048    3.63345607    0.02224784
 H                  9.94119415    2.94425413   -0.71540699
 C                  2.37599545   -0.27984994    1.96851325
 H                  1.31267231   -0.49612983    1.97899725
 C                 10.01708033   -4.61429335    3.47525546
 H                 10.31478309   -5.54696957    3.00549582
 C                 11.02807567    5.86912165    0.65541724
 H                 11.16085433    6.91781916    0.40695805
 C                 10.51007099    4.98288595   -0.29567115
 H                 10.23832558    5.34130695   -1.28404046
 C                  5.13331073    0.27978509    1.94912865

 1 6 1.0 7 1.0
 2 10 1.0 16 1.0
 3 7 1.5 15 1.5 26 1.5
 4 11 1.0 13 1.5 16 1.5
 5 15 1.5 17 1.5 27 1.5
 6 9 1.5 13 1.5
 7 23 1.5
 8 15 1.5 19 1.5 29 1.5
 9 14 1.5 26 1.0
 10 12 1.5 36 1.5
 11 12 1.5 34 1.5
 12 25 1.5
 13 31 1.0
 14 16 1.5 33 1.0
 15
 16
 17 18 1.0 23 2.0
 18
 19 20 1.0 21 2.0
 20
 21 22 1.0 26 1.5
 22
 23 24 1.0
 24
 25 32 1.5 46 1.5
 26
 27 28 1.0 40 1.5
 28
 29 30 1.0 40 1.5
 30
 31 49 1.5 51 1.5
 32 38 1.5 47 1.5
 33 44 1.5 61 1.5
 34 35 1.0 47 2.0
 35
 36 37 1.0 42 2.0
 37
 38 39 1.0 63 1.5
 39
 40 41 1.0
 41
 42 43 1.0 46 1.5
 43
 44 45 1.0 59 1.5
 45
 46 53 1.5
 47 48 1.0
 48
 49 50 1.0 55 1.5
 50
 51 52 1.0 65 1.5
 52
 53 54 1.0 63 1.5
 54
 55 56 1.0 57 1.5
 56
 57 58 1.0 65 1.5
 58
 59 60 1.0 67 1.5
 60
 61 62 1.0 69 1.5
 62
 63 64 1.0
 64
 65 66 1.0
 66
 67 68 1.0 69 1.5
 68
 69 70 1.0
 70
 71 76 1.0 77 1.0
 72 80 1.0 86 1.0
 73 77 1.5 85 1.5 95 1.5
 74 81 1.0 83 1.5 86 1.5
 75 85 1.5 87 1.5 96 1.5
 76 79 1.5 83 1.5
 77 93 1.5
 78 85 1.5 89 1.5 98 1.5
 79 84 1.5 95 1.0
 80 82 1.5 105 1.5
 81 82 1.5 103 1.5
 82 140 1.5
 83 100 1.0
 84 86 1.5 102 1.0
 85
 86
 87 88 1.0 93 2.0
 88
 89 90 1.0 91 2.0
 90
 91 92 1.0 95 1.5
 92
 93 94 1.0
 94
 95
 96 97 1.0 109 1.5
 97
 98 99 1.0 109 1.5
 99
 100 118 1.5 120 1.5
 101 107 1.5 116 1.5 140 1.5
 102 113 1.5 130 1.5
 103 104 1.0 116 2.0
 104
 105 106 1.0 111 2.0
 106
 107 108 1.0 132 1.5
 108
 109 110 1.0
 110
 111 112 1.0 115 1.5
 112
 113 114 1.0 128 1.5
 114
 115 122 1.5 140 1.5
 116 117 1.0
 117
 118 119 1.0 124 1.5
 119
 120 121 1.0 134 1.5
 121
 122 123 1.0 132 1.5
 123
 124 125 1.0 126 1.5
 125
 126 127 1.0 134 1.5
 127
 128 129 1.0 136 1.5
 129
 130 131 1.0 138 1.5
 131
 132 133 1.0
 133
 134 135 1.0
 135
 136 137 1.0 138 1.5
 137
 138 139 1.0
 139
 140

