%chk=/oasis/projects/nsf/lhu120/cmw414/rc_slip_x_new/2_6A/dimer/dimer.chk
%mem=110GB
#p b3lyp/6-311g(d,p) nosymm pop=full iop(3/33=1) punch=mo

c47

2 1
 O                  1.86343256   -2.18814168   -0.63312396
 O                 -1.87688744    1.76594132   -0.63317696
 C                  3.69461456   -0.67140268   -0.87047896
 C                 -1.39648944   -0.60712468   -0.87219696
 C                  5.97175156   -1.62878468   -0.73581696
 C                  0.95630456   -1.17504168   -0.77241696
 C                  3.19421256   -1.96292068   -0.63793396
 C                  5.65376956    0.77013232   -1.23999596
 C                  1.38305156    0.18492932   -0.87218096
 C                 -3.20766744    1.54071032   -0.63799196
 C                 -2.81321944   -0.85705968   -1.03609996
 C                 -3.70805744    0.24918032   -0.87049696
 C                 -0.37497644   -1.59266368   -0.78251796
 C                  0.36153156    1.17047132   -0.78252296
 C                  5.10807156   -0.51188368   -0.94441996
 C                 -0.96975044    0.75284632   -0.77244796
 C                  5.39488456   -2.90675768   -0.47207296
 H                  6.04966056   -3.75780568   -0.31297796
 C                  4.74462556    1.84550032   -1.48258496
 H                  5.14791656    2.81613132   -1.75583896
 C                  3.38157356    1.68676032   -1.38711396
 H                  2.74968056    2.53497832   -1.59754396
 C                  4.02720956   -3.07643968   -0.43155996
 H                  3.57365556   -4.04439768   -0.25108496
 C                 -5.12151244    0.08963932   -0.94441896
 C                  2.79978656    0.43484332   -1.03611196
 C                  7.36964356   -1.42936968   -0.80567596
 H                  8.03205756   -2.27390668   -0.64047896
 C                  7.05237556    0.92132132   -1.30766596
 H                  7.47035056    1.89702532   -1.53701096
 C                 -0.64793744   -3.04866968   -0.59509396
 C                 -5.66719544   -1.19239768   -1.23993096
 C                  0.63446856    2.62647732   -0.59506596
 C                 -3.39498944   -2.10900768   -1.38701396
 H                 -2.76308144   -2.95723068   -1.59738596
 C                 -4.04067744    2.65422632   -0.43164996
 H                 -3.58713344    3.62219432   -0.25120396
 C                 -7.06580044   -1.34360768   -1.30758296
 H                 -7.48376544   -2.31932768   -1.53687896
 C                  7.89727656   -0.17032768   -1.08596396
 H                  8.97295756   -0.03707868   -1.13791896
 C                 -5.40835044    2.48452732   -0.47215796
 H                 -6.06313544    3.33557232   -0.31308796
 C                  1.19132356    3.07285032    0.61237504
 H                  1.43075056    2.35253132    1.38925504
 C                 -5.98520444    1.20653832   -0.73585396
 C                 -4.75804044   -2.26777068   -1.48246496
 H                 -5.16132144   -3.23842268   -1.75565596
 C                 -1.20495544   -3.49503768    0.61227204
 H                 -1.44447744   -2.77471768    1.38912204
 C                 -0.33428944   -3.98126668   -1.59421096
 H                  0.10494656   -3.63898068   -2.52632896
 C                 -7.38309444    1.00710232   -0.80569496
 H                 -8.04551744    1.85163832   -0.64052696
 C                 -1.46487044   -4.85334768    0.80924704
 H                 -1.90033044   -5.18805568    1.74603204
 C                 -1.16705344   -5.77762768   -0.19748196
 H                 -1.37357744   -6.83295368   -0.04661296
 C                  1.45120356    4.43116132    0.80938404
 H                  1.88654356    4.76587132    1.74622404
 C                  0.32092856    3.55907532   -1.59421596
 H                 -0.11819244    3.21678732   -2.52638696
 C                 -7.91071344   -0.25195768   -1.08592496
 H                 -8.98639244   -0.38522368   -1.13786596
 C                 -0.59829944   -5.33868768   -1.39838196
 H                 -0.36076744   -6.05187768   -2.18204296
 C                  1.15351056    5.35543932   -0.19738296
 H                  1.36000956    6.41076732   -0.04648696
 C                  0.58490756    4.91649632   -1.39835396
 H                  0.34746656    5.62968632   -2.18204196
 O                 14.79698203   -0.72429156    2.98771261
 O                 10.80054758    2.68898208    1.57249503
 C                 16.52604768    0.72146041    2.19386417
 C                 11.44280818    0.43220074    2.21576349
 C                 18.85970251    0.03817955    2.64911076
 C                 13.82640981    0.10271641    2.49506392
 C                 16.10957058   -0.42602451    2.88835916
 C                 18.39000301    2.05775895    1.30345360
 C                 14.16262795    1.35733283    1.89968001
 C                  9.48811854    2.38717924    1.66289787
 C                 10.04891555    0.04330595    2.16801656
 C                  9.07932913    1.06929421    1.92475420
 C                 12.52646396   -0.37958535    2.65109299
 C                 13.07600531    2.23482854    1.63118935
 C                 17.92666083    0.93908666    2.05352214
 C                 11.77572570    1.75991622    1.80598956
 C                 18.36552002   -1.09053625    3.36837131
 H                 19.07315326   -1.77717703    3.82235937
 C                 17.41495058    2.90456352    0.69189547
 H                 17.75672886    3.73272492    0.07807773
 C                 16.06421466    2.69899667    0.85151559
 H                 15.38044673    3.36576813    0.35059588
 C                 17.01181255   -1.32670898    3.48091776
 H                 16.62124317   -2.18982175    4.00790643
 C                 15.56193734    1.62609328    1.64244574
 C                 20.24204625    0.29325783    2.49808248
 H                 20.95676213   -0.38458289    2.95528949
 C                 19.77625545    2.26893713    1.17213702
 H                 20.13161802    3.11889833    0.59717274
 C                 12.34865540   -1.68067867    3.36181740
 C                  7.22758882   -0.53778753    2.12772326
 C                 13.24760312    3.67327298    1.26922254
 C                  9.55824127   -1.28680025    2.30595501
 H                 10.24896916   -2.10775309    2.41539805
 C                  8.57905260    3.43907517    1.45429633
 H                  8.96365492    4.43443448    1.26307426
 C                  5.84357206   -0.79856580    2.13315546
 H                  5.49578968   -1.81658277    2.28144497
 C                 20.68865414    1.39497713    1.77082690
 H                 21.75369505    1.57317491    1.66369312
 C                  7.22668538    3.17320149    1.49147395
 H                  6.51379256    3.97641145    1.33348071
 C                 13.75328302    4.56797018    2.22371449
 H                 14.02759990    4.20057534    3.20834567
 C                  6.74122147    1.85122285    1.72005497
 C                  8.21065874   -1.56234034    2.28796597
 C                 11.80296006   -1.69062058    4.65385605
 H                 11.50290653   -0.75395973    5.11468353
 C                 12.74055494   -2.89068609    2.77135671
 H                 13.17118323   -2.88453550    1.77463539
 C                  5.36118667    1.54494050    1.74112593
 H                  4.64100973    2.34382220    1.59126285
 C                 11.63146030   -2.89666572    5.33752551
 H                 11.20401405   -2.89381609    6.33577527
 C                 12.00713476   -4.10282737    4.73708023
 H                 11.86935087   -5.04096098    5.26627538
 C                 13.91824572    5.91836578    1.90657416
 H                 14.31465097    6.60198778    2.65138602
 C                 12.88878943    4.15114311    0.00066432
 H                 12.48904310    3.46194117   -0.73699051
 C                  4.92384440    0.23783710    1.94692973
 C                 12.56492928   -4.09660631    3.45367194
 H                 12.86263204   -5.02928253    2.98391230
 C                 13.57592462    6.38680869    0.63383372
 H                 13.70870328    7.43550620    0.38537453
 C                 13.05791994    5.50057299   -0.31725467
 H                 12.78617453    5.85899399   -1.30562398
 C                  7.68115968    0.79747213    1.92754513
 H                  7.88281771   -2.57556500    2.39186998
 H                  3.87536318    0.02457606    1.95726739

 1 6 1.0 7 1.0
 2 10 1.0 16 1.0
 3 7 1.5 15 1.5 26 1.5
 4 11 1.0 13 1.5 16 1.5
 5 15 1.5 17 1.5 27 1.5
 6 9 1.5 13 1.5
 7 23 1.5
 8 15 1.5 19 1.5 29 1.5
 9 14 1.5 26 1.0
 10 12 1.5 36 1.5
 11 12 1.5 34 1.5
 12 25 1.5
 13 31 1.0
 14 16 1.5 33 1.0
 15
 16
 17 18 1.0 23 2.0
 18
 19 20 1.0 21 2.0
 20
 21 22 1.0 26 1.5
 22
 23 24 1.0
 24
 25 32 1.5 46 1.5
 26
 27 28 1.0 40 1.5
 28
 29 30 1.0 40 1.5
 30
 31 49 1.5 51 1.5
 32 38 1.5 47 1.5
 33 44 1.5 61 1.5
 34 35 1.0 47 2.0
 35
 36 37 1.0 42 2.0
 37
 38 39 1.0 63 1.5
 39
 40 41 1.0
 41
 42 43 1.0 46 1.5
 43
 44 45 1.0 59 1.5
 45
 46 53 1.5
 47 48 1.0
 48
 49 50 1.0 55 1.5
 50
 51 52 1.0 65 1.5
 52
 53 54 1.0 63 1.5
 54
 55 56 1.0 57 1.5
 56
 57 58 1.0 65 1.5
 58
 59 60 1.0 67 1.5
 60
 61 62 1.0 69 1.5
 62
 63 64 1.0
 64
 65 66 1.0
 66
 67 68 1.0 69 1.5
 68
 69 70 1.0
 70
 71 76 1.0 77 1.0
 72 80 1.0 86 1.0
 73 77 1.5 85 1.5 95 1.5
 74 81 1.0 83 1.5 86 1.5
 75 85 1.5 87 1.5 96 1.5
 76 79 1.5 83 1.5
 77 93 1.5
 78 85 1.5 89 1.5 98 1.5
 79 84 1.5 95 1.0
 80 82 1.5 105 1.5
 81 82 1.5 103 1.5
 82 140 1.5
 83 100 1.0
 84 86 1.5 102 1.0
 85
 86
 87 88 1.0 93 2.0
 88
 89 90 1.0 91 2.0
 90
 91 92 1.0 95 1.5
 92
 93 94 1.0
 94
 95
 96 97 1.0 109 1.5
 97
 98 99 1.0 109 1.5
 99
 100 118 1.5 120 1.5
 101 107 1.5 116 1.5 140 1.5
 102 113 1.5 130 1.5
 103 104 1.0 116 2.0
 104
 105 106 1.0 111 2.0
 106
 107 108 1.0 132 1.5
 108
 109 110 1.0
 110
 111 112 1.0 115 1.5
 112
 113 114 1.0 128 1.5
 114
 115 122 1.5 140 1.5
 116 117 1.0
 117
 118 119 1.0 124 1.5
 119
 120 121 1.0 134 1.5
 121
 122 123 1.0 132 1.5
 123
 124 125 1.0 126 1.5
 125
 126 127 1.0 134 1.5
 127
 128 129 1.0 136 1.5
 129
 130 131 1.0 138 1.5
 131
 132 133 1.0
 133
 134 135 1.0
 135
 136 137 1.0 138 1.5
 137
 138 139 1.0
 139
 140

































