%chk=/oasis/projects/nsf/lhu120/cmw414/rc_slip_y_90/2_8A/dimer/dimer.chk
%mem=110GB
#p b3lyp/6-311g(d,p) nosymm pop=full iop(3/33=1) punch=mo

c47

2 1
 O                  1.86343256   -2.18814168   -0.63312396
 O                 -1.87688744    1.76594132   -0.63317696
 C                  3.69461456   -0.67140268   -0.87047896
 C                 -1.39648944   -0.60712468   -0.87219696
 C                  5.97175156   -1.62878468   -0.73581696
 C                  0.95630456   -1.17504168   -0.77241696
 C                  3.19421256   -1.96292068   -0.63793396
 C                  5.65376956    0.77013232   -1.23999596
 C                  1.38305156    0.18492932   -0.87218096
 C                 -3.20766744    1.54071032   -0.63799196
 C                 -2.81321944   -0.85705968   -1.03609996
 C                 -3.70805744    0.24918032   -0.87049696
 C                 -0.37497644   -1.59266368   -0.78251796
 C                  0.36153156    1.17047132   -0.78252296
 C                  5.10807156   -0.51188368   -0.94441996
 C                 -0.96975044    0.75284632   -0.77244796
 C                  5.39488456   -2.90675768   -0.47207296
 H                  6.04966056   -3.75780568   -0.31297796
 C                  4.74462556    1.84550032   -1.48258496
 H                  5.14791656    2.81613132   -1.75583896
 C                  3.38157356    1.68676032   -1.38711396
 H                  2.74968056    2.53497832   -1.59754396
 C                  4.02720956   -3.07643968   -0.43155996
 H                  3.57365556   -4.04439768   -0.25108496
 C                 -5.12151244    0.08963932   -0.94441896
 C                  2.79978656    0.43484332   -1.03611196
 C                  7.36964356   -1.42936968   -0.80567596
 H                  8.03205756   -2.27390668   -0.64047896
 C                  7.05237556    0.92132132   -1.30766596
 H                  7.47035056    1.89702532   -1.53701096
 C                 -0.64793744   -3.04866968   -0.59509396
 C                 -5.66719544   -1.19239768   -1.23993096
 C                  0.63446856    2.62647732   -0.59506596
 C                 -3.39498944   -2.10900768   -1.38701396
 H                 -2.76308144   -2.95723068   -1.59738596
 C                 -4.04067744    2.65422632   -0.43164996
 H                 -3.58713344    3.62219432   -0.25120396
 C                 -7.06580044   -1.34360768   -1.30758296
 H                 -7.48376544   -2.31932768   -1.53687896
 C                  7.89727656   -0.17032768   -1.08596396
 H                  8.97295756   -0.03707868   -1.13791896
 C                 -5.40835044    2.48452732   -0.47215796
 H                 -6.06313544    3.33557232   -0.31308796
 C                  1.19132356    3.07285032    0.61237504
 H                  1.43075056    2.35253132    1.38925504
 C                 -5.98520444    1.20653832   -0.73585396
 C                 -4.75804044   -2.26777068   -1.48246496
 H                 -5.16132144   -3.23842268   -1.75565596
 C                 -1.20495544   -3.49503768    0.61227204
 H                 -1.44447744   -2.77471768    1.38912204
 C                 -0.33428944   -3.98126668   -1.59421096
 H                  0.10494656   -3.63898068   -2.52632896
 C                 -7.38309444    1.00710232   -0.80569496
 H                 -8.04551744    1.85163832   -0.64052696
 C                 -1.46487044   -4.85334768    0.80924704
 H                 -1.90033044   -5.18805568    1.74603204
 C                 -1.16705344   -5.77762768   -0.19748196
 H                 -1.37357744   -6.83295368   -0.04661296
 C                  1.45120356    4.43116132    0.80938404
 H                  1.88654356    4.76587132    1.74622404
 C                  0.32092856    3.55907532   -1.59421596
 H                 -0.11819244    3.21678732   -2.52638696
 C                 -7.91071344   -0.25195768   -1.08592496
 H                 -8.98639244   -0.38522368   -1.13786596
 C                 -0.59829944   -5.33868768   -1.39838196
 H                 -0.36076744   -6.05187768   -2.18204296
 C                  1.15351056    5.35543932   -0.19738296
 H                  1.36000956    6.41076732   -0.04648696
 C                  0.58490756    4.91649632   -1.39835396
 H                  0.34746656    5.62968632   -2.18204196
 O                 13.44637832   -3.75015859    3.34935053
 O                  9.44994387   -0.33688495    1.93413295
 C                 15.17544397   -2.30440662    2.55550209
 C                 10.09220447   -2.59366629    2.57740141
 C                 17.50909880   -2.98768748    3.01074868
 C                 12.47580610   -2.92315062    2.85670184
 C                 14.75896687   -3.45189154    3.24999708
 C                 17.03939930   -0.96810808    1.66509152
 C                 12.81202424   -1.66853420    2.26131793
 C                  8.13751483   -0.63868779    2.02453579
 C                  8.69831184   -2.98256108    2.52965448
 C                  7.72872542   -1.95657282    2.28639212
 C                 11.17586025   -3.40545238    3.01273091
 C                 11.72540160   -0.79103849    1.99282727
 C                 16.57605712   -2.08678037    2.41516006
 C                 10.42512199   -1.26595081    2.16762748
 C                 17.01491631   -4.11640328    3.73000923
 H                 17.72254955   -4.80304406    4.18399729
 C                 16.06434687   -0.12130351    1.05353339
 H                 16.40612515    0.70685789    0.43971565
 C                 14.71361095   -0.32687036    1.21315351
 H                 14.02984302    0.33990110    0.71223380
 C                 15.66120884   -4.35257601    3.84255568
 H                 15.27063946   -5.21568878    4.36954435
 C                 14.21133363   -1.39977375    2.00408366
 C                 18.89144254   -2.73260920    2.85972040
 H                 19.60615842   -3.41044992    3.31692741
 C                 18.42565174   -0.75692990    1.53377494
 H                 18.78101431    0.09303130    0.95881066
 C                 10.99805169   -4.70654570    3.72345532
 C                  5.87698511   -3.56365456    2.48936118
 C                 11.89699941    0.64740595    1.63086046
 C                  8.20763756   -4.31266728    2.66759293
 H                  8.89836545   -5.13362012    2.77703597
 C                  7.22844889    0.41320814    1.81593425
 H                  7.61305121    1.40856745    1.62471218
 C                  4.49296835   -3.82443283    2.49479338
 H                  4.14518597   -4.84244980    2.64308289
 C                 19.33805043   -1.63088990    2.13246482
 H                 20.40309134   -1.45269212    2.02533104
 C                  5.87608167    0.14733446    1.85311187
 H                  5.16318885    0.95054442    1.69511863
 C                 12.40267931    1.54210315    2.58535241
 H                 12.67699619    1.17470831    3.56998359
 C                  5.39061776   -1.17464418    2.08169289
 C                  6.86005503   -4.58820737    2.64960389
 C                 10.45235635   -4.71648761    5.01549397
 H                 10.15230282   -3.77982676    5.47632145
 C                 11.38995123   -5.91655312    3.13299463
 H                 11.82057952   -5.91040253    2.13627331
 C                  4.01058296   -1.48092653    2.10276385
 H                  3.29040602   -0.68204483    1.95290077
 C                 10.28085659   -5.92253275    5.69916343
 H                  9.85341034   -5.91968312    6.69741319
 C                 10.65653105   -7.12869440    5.09871815
 H                 10.51874716   -8.06682801    5.62791330
 C                 12.56764201    2.89249875    2.26821208
 H                 12.96404726    3.57612075    3.01302394
 C                 11.53818572    1.12527608    0.36230224
 H                 11.13843939    0.43607414   -0.37535259
 C                  3.57324069   -2.78802993    2.30856765
 C                 11.21432557   -7.12247334    3.81530986
 H                 11.51202833   -8.05514956    3.34555022
 C                 12.22532091    3.36094166    0.99547164
 H                 12.35809957    4.40963917    0.74701245
 C                 11.70731623    2.47470596    0.04438325
 H                 11.43557082    2.83312696   -0.94398606
 C                  6.33055597   -2.22839490    2.28918305
 H                  6.53221400   -5.60143203    2.75350790
 H                  2.52475947   -3.00129097    2.31890531

 1 6 1.0 7 1.0
 2 10 1.0 16 1.0
 3 7 1.5 15 1.5 26 1.5
 4 11 1.0 13 1.5 16 1.5
 5 15 1.5 17 1.5 27 1.5
 6 9 1.5 13 1.5
 7 23 1.5
 8 15 1.5 19 1.5 29 1.5
 9 14 1.5 26 1.0
 10 12 1.5 36 1.5
 11 12 1.5 34 1.5
 12 25 1.5
 13 31 1.0
 14 16 1.5 33 1.0
 15
 16
 17 18 1.0 23 2.0
 18
 19 20 1.0 21 2.0
 20
 21 22 1.0 26 1.5
 22
 23 24 1.0
 24
 25 32 1.5 46 1.5
 26
 27 28 1.0 40 1.5
 28
 29 30 1.0 40 1.5
 30
 31 49 1.5 51 1.5
 32 38 1.5 47 1.5
 33 44 1.5 61 1.5
 34 35 1.0 47 2.0
 35
 36 37 1.0 42 2.0
 37
 38 39 1.0 63 1.5
 39
 40 41 1.0
 41
 42 43 1.0 46 1.5
 43
 44 45 1.0 59 1.5
 45
 46 53 1.5
 47 48 1.0
 48
 49 50 1.0 55 1.5
 50
 51 52 1.0 65 1.5
 52
 53 54 1.0 63 1.5
 54
 55 56 1.0 57 1.5
 56
 57 58 1.0 65 1.5
 58
 59 60 1.0 67 1.5
 60
 61 62 1.0 69 1.5
 62
 63 64 1.0
 64
 65 66 1.0
 66
 67 68 1.0 69 1.5
 68
 69 70 1.0
 70
 71 76 1.0 77 1.0
 72 80 1.0 86 1.0
 73 77 1.5 85 1.5 95 1.5
 74 81 1.0 83 1.5 86 1.5
 75 85 1.5 87 1.5 96 1.5
 76 79 1.5 83 1.5
 77 93 1.5
 78 85 1.5 89 1.5 98 1.5
 79 84 1.5 95 1.0
 80 82 1.5 105 1.5
 81 82 1.5 103 1.5
 82 140 1.5
 83 100 1.0
 84 86 1.5 102 1.0
 85
 86
 87 88 1.0 93 2.0
 88
 89 90 1.0 91 2.0
 90
 91 92 1.0 95 1.5
 92
 93 94 1.0
 94
 95
 96 97 1.0 109 1.5
 97
 98 99 1.0 109 1.5
 99
 100 118 1.5 120 1.5
 101 107 1.5 116 1.5 140 1.5
 102 113 1.5 130 1.5
 103 104 1.0 116 2.0
 104
 105 106 1.0 111 2.0
 106
 107 108 1.0 132 1.5
 108
 109 110 1.0
 110
 111 112 1.0 115 1.5
 112
 113 114 1.0 128 1.5
 114
 115 122 1.5 140 1.5
 116 117 1.0
 117
 118 119 1.0 124 1.5
 119
 120 121 1.0 134 1.5
 121
 122 123 1.0 132 1.5
 123
 124 125 1.0 126 1.5
 125
 126 127 1.0 134 1.5
 127
 128 129 1.0 136 1.5
 129
 130 131 1.0 138 1.5
 131
 132 133 1.0
 133
 134 135 1.0
 135
 136 137 1.0 138 1.5
 137
 138 139 1.0
 139
 140





































