%chk=/oasis/projects/nsf/lhu120/cmw414/pent_y_stack/n_0_4A/dimer/dimer.chk
%nprocshared=24
%mem=110GB
#p b3lyp/6-311g(d,p) nosymm pop=full iop(3/33=1) punch=mo

c47

0 1
 C                 -8.87489156   -6.21317322    3.67991365
 C                 -8.84689156   -5.35717322    2.62391365
 C                 -8.22589156   -5.67517322    1.38891365
 C                 -8.21089156   -4.77617322    0.30391365
 C                 -7.55589156   -5.10917322   -0.91408635
 C                 -7.50689156   -4.24517322   -1.99608635
 C                 -6.95889156   -6.45317322   -1.04808635
 C                 -7.07389156   -7.29717322    0.00991365
 C                 -7.59489156   -6.99317322    1.25491365
 C                 -7.72089156   -7.86217322    2.34591365
 C                 -8.23289156   -7.54517322    3.55091365
 H                 -9.36489156   -5.89417322    4.74691365
 H                 -9.25589156   -4.33317322    2.71691365
 H                 -8.64489156   -3.76317322    0.43991365
 H                 -7.97389156   -3.22717322   -1.85108635
 H                 -6.61589156   -8.30817322   -0.08208635
 H                 -7.26389156   -8.86817322    2.26691365
 H                 -8.24389156   -8.22417322    4.42791365
 C                 -6.90689156   -4.56417322   -3.23408635
 C                 -6.35889156   -6.77217322   -2.28608635
 C                 -6.30889156   -5.90917322   -3.36808635
 C                 -6.79189156   -3.72117322   -4.29208635
 H                 -5.89089156   -7.79117322   -2.43108635
 C                 -5.65489156   -6.24217322   -4.58608635
 C                 -6.26989156   -4.02517322   -5.53708635
 H                 -7.24989156   -2.71017322   -4.20008635
 C                 -5.63989156   -5.34317322   -5.67108635
 H                 -5.22089156   -7.25417322   -4.72208635
 C                 -6.14489156   -3.15617322   -6.62808635
 C                 -5.01889156   -5.66017322   -6.90608635
 C                 -5.63289156   -3.47317322   -7.83308635
 H                 -6.60189156   -2.15017322   -6.54908635
 C                 -4.99089156   -4.80517322   -7.96208635
 H                 -4.60989156   -6.68517322   -6.99908635
 H                 -5.62089156   -2.79417322   -8.71008635
 H                 -4.50089156   -5.12417322   -9.02908635
 C                 -5.55955519   -5.28557798    4.80563065
 C                 -5.53155519   -4.42957798    3.74963065
 C                 -4.91055519   -4.74757798    2.51463065
 C                 -4.89555519   -3.84857798    1.42963065
 C                 -4.24055519   -4.18157798    0.21163065
 C                 -4.19155519   -3.31757798   -0.87036935
 C                 -3.64355519   -5.52557798    0.07763065
 C                 -3.75855519   -6.36957798    1.13563065
 C                 -4.27955519   -6.06557798    2.38063065
 C                 -4.40555519   -6.93457798    3.47163065
 C                 -4.91755519   -6.61757798    4.67663065
 H                 -6.04955519   -4.96657798    5.87263065
 H                 -5.94055519   -3.40557798    3.84263065
 H                 -5.32955519   -2.83557798    1.56563065
 H                 -4.65855519   -2.29957798   -0.72536935
 H                 -3.30055519   -7.38057798    1.04363065
 H                 -3.94855519   -7.94057798    3.39263065
 H                 -4.92855519   -7.29657798    5.55363065
 C                 -3.59155519   -3.63657798   -2.10836935
 C                 -3.04355519   -5.84457798   -1.16036935
 C                 -2.99355519   -4.98157798   -2.24236935
 C                 -3.47655519   -2.79357798   -3.16636935
 H                 -2.57555519   -6.86357798   -1.30536935
 C                 -2.33955519   -5.31457798   -3.46036935
 C                 -2.95455519   -3.09757798   -4.41136935
 H                 -3.93455519   -1.78257798   -3.07436935
 C                 -2.32455519   -4.41557798   -4.54536935
 H                 -1.90555519   -6.32657798   -3.59636935
 C                 -2.82955519   -2.22857798   -5.50236935
 C                 -1.70355519   -4.73257798   -5.78036935
 C                 -2.31755519   -2.54557798   -6.70736935
 H                 -3.28655519   -1.22257798   -5.42336935
 C                 -1.67555519   -3.87757798   -6.83636935
 H                 -1.29455519   -5.75757798   -5.87336935
 H                 -2.30555519   -1.86657798   -7.58436935
 H                 -1.18555519   -4.19657798   -7.90336935

 1 2 2.0 11 1.0 12 1.0
 2 3 1.5 13 1.0
 3 4 1.5 9 1.0
 4 5 1.5 14 1.0
 5 6 2.0 7 1.0
 6 15 1.0 19 1.5
 7 8 2.0 20 1.5
 8 9 2.0 16 1.0
 9 10 1.5
 10 11 2.0 17 1.0
 11 18 1.0
 12
 13
 14
 15
 16
 17
 18
 19 21 1.0 22 2.0
 20 21 2.0 23 1.0
 21 24 1.5
 22 25 2.0 26 1.0
 23
 24 27 1.5 28 1.0
 25 27 1.0 29 1.5
 26
 27 30 1.5
 28
 29 31 2.0 32 1.0
 30 33 2.0 34 1.0
 31 33 1.0 35 1.0
 32
 33 36 1.0
 34
 35
 36
 37 38 2.0 47 1.0 48 1.0
 38 39 1.5 49 1.0
 39 40 1.5 45 1.0
 40 41 1.5 50 1.0
 41 42 2.0 43 1.0
 42 51 1.0 55 1.5
 43 44 2.0 56 1.5
 44 45 2.0 52 1.0
 45 46 1.5
 46 47 2.0 53 1.0
 47 54 1.0
 48
 49
 50
 51
 52
 53
 54
 55 57 1.0 58 2.0
 56 57 2.0 59 1.0
 57 60 1.5
 58 61 2.0 62 1.0
 59
 60 63 1.5 64 1.0
 61 63 1.0 65 1.5
 62
 63 66 1.5
 64
 65 67 2.0 68 1.0
 66 69 2.0 70 1.0
 67 69 1.0 71 1.0
 68
 69 72 1.0
 70
 71
 72


