%chk=/oasis/projects/nsf/lhu120/cmw414/pent_stack/6_9A/dimer/dimer.chk
%nprocshared=24
%mem=110GB
#p b3lyp/6-311g(d,p) nosymm pop=full iop(3/33=1) punch=mo

c47

0 1
 C                 -8.71269653   -6.57702505    3.64379411
 C                 -8.68469653   -5.72102505    2.58779411
 C                 -8.06369653   -6.03902505    1.35279411
 C                 -8.04869653   -5.14002505    0.26779411
 C                 -7.39369653   -5.47302505   -0.95020589
 C                 -7.34469653   -4.60902505   -2.03220589
 C                 -6.79669653   -6.81702505   -1.08420589
 C                 -6.91169653   -7.66102505   -0.02620589
 C                 -7.43269653   -7.35702505    1.21879411
 C                 -7.55869653   -8.22602505    2.30979411
 C                 -8.07069653   -7.90902505    3.51479411
 H                 -9.20269653   -6.25802505    4.71079411
 H                 -9.09369653   -4.69702505    2.68079411
 H                 -8.48269653   -4.12702505    0.40379411
 H                 -7.81169653   -3.59102505   -1.88720589
 H                 -6.45369653   -8.67202505   -0.11820589
 H                 -7.10169653   -9.23202505    2.23079411
 H                 -8.08169653   -8.58802505    4.39179411
 C                 -6.74469653   -4.92802505   -3.27020589
 C                 -6.19669653   -7.13602505   -2.32220589
 C                 -6.14669653   -6.27302505   -3.40420589
 C                 -6.62969653   -4.08502505   -4.32820589
 H                 -5.72869653   -8.15502505   -2.46720589
 C                 -5.49269653   -6.60602505   -4.62220589
 C                 -6.10769653   -4.38902505   -5.57320589
 H                 -7.08769653   -3.07402505   -4.23620589
 C                 -5.47769653   -5.70702505   -5.70720589
 H                 -5.05869653   -7.61802505   -4.75820589
 C                 -5.98269653   -3.52002505   -6.66420589
 C                 -4.85669653   -6.02402505   -6.94220589
 C                 -5.47069653   -3.83702505   -7.86920589
 H                 -6.43969653   -2.51402505   -6.58520589
 C                 -4.82869653   -5.16902505   -7.99820589
 H                 -4.44769653   -7.04902505   -7.03520589
 H                 -5.45869653   -3.15802505   -8.74620589
 H                 -4.33869653   -5.48802505   -9.06520589
 C                 -2.66917862   -4.10175273    5.87064638
 C                 -2.64117862   -3.24575273    4.81464638
 C                 -2.02017862   -3.56375273    3.57964638
 C                 -2.00517862   -2.66475273    2.49464638
 C                 -1.35017862   -2.99775273    1.27664638
 C                 -1.30117862   -2.13375273    0.19464638
 C                 -0.75317862   -4.34175273    1.14264638
 C                 -0.86817862   -5.18575273    2.20064638
 C                 -1.38917862   -4.88175273    3.44564638
 C                 -1.51517862   -5.75075273    4.53664638
 C                 -2.02717862   -5.43375273    5.74164638
 H                 -3.15917862   -3.78275273    6.93764638
 H                 -3.05017862   -2.22175273    4.90764638
 H                 -2.43917862   -1.65175273    2.63064638
 H                 -1.76817862   -1.11575273    0.33964638
 H                 -0.41017862   -6.19675273    2.10864638
 H                 -1.05817862   -6.75675273    4.45764638
 H                 -2.03817862   -6.11275273    6.61864638
 C                 -0.70117862   -2.45275273   -1.04335362
 C                 -0.15317862   -4.66075273   -0.09535362
 C                 -0.10317862   -3.79775273   -1.17735362
 C                 -0.58617862   -1.60975273   -2.10135362
 H                  0.31482138   -5.67975273   -0.24035362
 C                  0.55082138   -4.13075273   -2.39535362
 C                 -0.06417862   -1.91375273   -3.34635362
 H                 -1.04417862   -0.59875273   -2.00935362
 C                  0.56582138   -3.23175273   -3.48035362
 H                  0.98482138   -5.14275273   -2.53135362
 C                  0.06082138   -1.04475273   -4.43735362
 C                  1.18682138   -3.54875273   -4.71535362
 C                  0.57282138   -1.36175273   -5.64235362
 H                 -0.39617862   -0.03875273   -4.35835362
 C                  1.21482138   -2.69375273   -5.77135362
 H                  1.59582138   -4.57375273   -4.80835362
 H                  0.58482138   -0.68275273   -6.51935362
 H                  1.70482138   -3.01275273   -6.83835362

 1 2 2.0 11 1.0 12 1.0
 2 3 1.5 13 1.0
 3 4 1.5 9 1.0
 4 5 1.5 14 1.0
 5 6 2.0 7 1.0
 6 15 1.0 19 1.5
 7 8 2.0 20 1.5
 8 9 2.0 16 1.0
 9 10 1.5
 10 11 2.0 17 1.0
 11 18 1.0
 12
 13
 14
 15
 16
 17
 18
 19 21 1.0 22 2.0
 20 21 2.0 23 1.0
 21 24 1.5
 22 25 2.0 26 1.0
 23
 24 27 1.5 28 1.0
 25 27 1.0 29 1.5
 26
 27 30 1.5
 28
 29 31 2.0 32 1.0
 30 33 2.0 34 1.0
 31 33 1.0 35 1.0
 32
 33 36 1.0
 34
 35
 36
 37 38 2.0 47 1.0 48 1.0
 38 39 1.5 49 1.0
 39 40 1.5 45 1.0
 40 41 1.5 50 1.0
 41 42 2.0 43 1.0
 42 51 1.0 55 1.5
 43 44 2.0 56 1.5
 44 45 2.0 52 1.0
 45 46 1.5
 46 47 2.0 53 1.0
 47 54 1.0
 48
 49
 50
 51
 52
 53
 54
 55 57 1.0 58 2.0
 56 57 2.0 59 1.0
 57 60 1.5
 58 61 2.0 62 1.0
 59
 60 63 1.5 64 1.0
 61 63 1.0 65 1.5
 62
 63 66 1.5
 64
 65 67 2.0 68 1.0
 66 69 2.0 70 1.0
 67 69 1.0 71 1.0
 68
 69 72 1.0
 70
 71
 72


