%chk=/oasis/projects/nsf/lhu120/cmw414/rc_slip_y_90/4_0A/dimer/dimer.chk
%mem=110GB
#p b3lyp/6-311g(d,p) nosymm pop=full iop(3/33=1) punch=mo

c47

2 1
 O                  1.86343256   -2.18814168   -0.63312396
 O                 -1.87688744    1.76594132   -0.63317696
 C                  3.69461456   -0.67140268   -0.87047896
 C                 -1.39648944   -0.60712468   -0.87219696
 C                  5.97175156   -1.62878468   -0.73581696
 C                  0.95630456   -1.17504168   -0.77241696
 C                  3.19421256   -1.96292068   -0.63793396
 C                  5.65376956    0.77013232   -1.23999596
 C                  1.38305156    0.18492932   -0.87218096
 C                 -3.20766744    1.54071032   -0.63799196
 C                 -2.81321944   -0.85705968   -1.03609996
 C                 -3.70805744    0.24918032   -0.87049696
 C                 -0.37497644   -1.59266368   -0.78251796
 C                  0.36153156    1.17047132   -0.78252296
 C                  5.10807156   -0.51188368   -0.94441996
 C                 -0.96975044    0.75284632   -0.77244796
 C                  5.39488456   -2.90675768   -0.47207296
 H                  6.04966056   -3.75780568   -0.31297796
 C                  4.74462556    1.84550032   -1.48258496
 H                  5.14791656    2.81613132   -1.75583896
 C                  3.38157356    1.68676032   -1.38711396
 H                  2.74968056    2.53497832   -1.59754396
 C                  4.02720956   -3.07643968   -0.43155996
 H                  3.57365556   -4.04439768   -0.25108496
 C                 -5.12151244    0.08963932   -0.94441896
 C                  2.79978656    0.43484332   -1.03611196
 C                  7.36964356   -1.42936968   -0.80567596
 H                  8.03205756   -2.27390668   -0.64047896
 C                  7.05237556    0.92132132   -1.30766596
 H                  7.47035056    1.89702532   -1.53701096
 C                 -0.64793744   -3.04866968   -0.59509396
 C                 -5.66719544   -1.19239768   -1.23993096
 C                  0.63446856    2.62647732   -0.59506596
 C                 -3.39498944   -2.10900768   -1.38701396
 H                 -2.76308144   -2.95723068   -1.59738596
 C                 -4.04067744    2.65422632   -0.43164996
 H                 -3.58713344    3.62219432   -0.25120396
 C                 -7.06580044   -1.34360768   -1.30758296
 H                 -7.48376544   -2.31932768   -1.53687896
 C                  7.89727656   -0.17032768   -1.08596396
 H                  8.97295756   -0.03707868   -1.13791896
 C                 -5.40835044    2.48452732   -0.47215796
 H                 -6.06313544    3.33557232   -0.31308796
 C                  1.19132356    3.07285032    0.61237504
 H                  1.43075056    2.35253132    1.38925504
 C                 -5.98520444    1.20653832   -0.73585396
 C                 -4.75804044   -2.26777068   -1.48246496
 H                 -5.16132144   -3.23842268   -1.75565596
 C                 -1.20495544   -3.49503768    0.61227204
 H                 -1.44447744   -2.77471768    1.38912204
 C                 -0.33428944   -3.98126668   -1.59421096
 H                  0.10494656   -3.63898068   -2.52632896
 C                 -7.38309444    1.00710232   -0.80569496
 H                 -8.04551744    1.85163832   -0.64052696
 C                 -1.46487044   -4.85334768    0.80924704
 H                 -1.90033044   -5.18805568    1.74603204
 C                 -1.16705344   -5.77762768   -0.19748196
 H                 -1.37357744   -6.83295368   -0.04661296
 C                  1.45120356    4.43116132    0.80938404
 H                  1.88654356    4.76587132    1.74622404
 C                  0.32092856    3.55907532   -1.59421596
 H                 -0.11819244    3.21678732   -2.52638696
 C                 -7.91071344   -0.25195768   -1.08592496
 H                 -8.98639244   -0.38522368   -1.13786596
 C                 -0.59829944   -5.33868768   -1.39838196
 H                 -0.36076744   -6.05187768   -2.18204296
 C                  1.15351056    5.35543932   -0.19738296
 H                  1.36000956    6.41076732   -0.04648696
 C                  0.58490756    4.91649632   -1.39835396
 H                  0.34746656    5.62968632   -2.18204196
 O                 13.95948341   -4.82509287    3.49508810
 O                  9.96304896   -1.41181923    2.07987052
 C                 15.68854906   -3.37934090    2.70123966
 C                 10.60530956   -3.66860057    2.72313898
 C                 18.02220389   -4.06262176    3.15648625
 C                 12.98891119   -3.99808490    3.00243941
 C                 15.27207196   -4.52682582    3.39573465
 C                 17.55250439   -2.04304236    1.81082909
 C                 13.32512933   -2.74346848    2.40705550
 C                  8.65061992   -1.71362207    2.17027336
 C                  9.21141693   -4.05749536    2.67539205
 C                  8.24183051   -3.03150710    2.43212969
 C                 11.68896534   -4.48038666    3.15846848
 C                 12.23850669   -1.86597277    2.13856484
 C                 17.08916221   -3.16171465    2.56089763
 C                 10.93822708   -2.34088509    2.31336505
 C                 17.52802140   -5.19133756    3.87574680
 H                 18.23565464   -5.87797834    4.32973486
 C                 16.57745196   -1.19623779    1.19927096
 H                 16.91923024   -0.36807639    0.58545322
 C                 15.22671604   -1.40180464    1.35889108
 H                 14.54294811   -0.73503318    0.85797137
 C                 16.17431393   -5.42751029    3.98829325
 H                 15.78374455   -6.29062306    4.51528192
 C                 14.72443872   -2.47470803    2.14982123
 C                 19.40454763   -3.80754348    3.00545797
 H                 20.11926351   -4.48538420    3.46266498
 C                 18.93875683   -1.83186418    1.67951251
 H                 19.29411940   -0.98190298    1.10454823
 C                 11.51115678   -5.78147998    3.86919289
 C                  6.39009020   -4.63858884    2.63509875
 C                 12.41010450   -0.42752833    1.77659803
 C                  8.72074265   -5.38760156    2.81333050
 H                  9.41147054   -6.20855440    2.92277354
 C                  7.74155398   -0.66172614    1.96167182
 H                  8.12615630    0.33363317    1.77044975
 C                  5.00607344   -4.89936711    2.64053095
 H                  4.65829106   -5.91738408    2.78882046
 C                 19.85115552   -2.70582418    2.27820239
 H                 20.91619643   -2.52762640    2.17106861
 C                  6.38918676   -0.92759982    1.99884944
 H                  5.67629394   -0.12438986    1.84085620
 C                 12.91578440    0.46716887    2.73108998
 H                 13.19010128    0.09977403    3.71572116
 C                  5.90372285   -2.24957846    2.22743046
 C                  7.37316012   -5.66314165    2.79534146
 C                 10.96546144   -5.79142189    5.16123154
 H                 10.66540791   -4.85476104    5.62205902
 C                 11.90305632   -6.99148740    3.27873220
 H                 12.33368461   -6.98533681    2.28201088
 C                  4.52368805   -2.55586081    2.24850142
 H                  3.80351111   -1.75697911    2.09863834
 C                 10.79396168   -6.99746703    5.84490100
 H                 10.36651543   -6.99461740    6.84315076
 C                 11.16963614   -8.20362868    5.24445572
 H                 11.03185225   -9.14176229    5.77365087
 C                 13.08074710    1.81756447    2.41394965
 H                 13.47715235    2.50118647    3.15876151
 C                 12.05129081    0.05034180    0.50803981
 H                 11.65154448   -0.63886014   -0.22961502
 C                  4.08634578   -3.86296421    2.45430522
 C                 11.72743066   -8.19740762    3.96104743
 H                 12.02513342   -9.13008384    3.49128779
 C                 12.73842600    2.28600738    1.14120921
 H                 12.87120466    3.33470489    0.89275002
 C                 12.22042132    1.39977168    0.19012082
 H                 11.94867591    1.75819268   -0.79824849
 C                  6.84366106   -3.30332918    2.43492062
 H                  7.04531909   -6.67636631    2.89924547
 H                  3.03786456   -4.07622525    2.46464288

 1 6 1.0 7 1.0
 2 10 1.0 16 1.0
 3 7 1.5 15 1.5 26 1.5
 4 11 1.0 13 1.5 16 1.5
 5 15 1.5 17 1.5 27 1.5
 6 9 1.5 13 1.5
 7 23 1.5
 8 15 1.5 19 1.5 29 1.5
 9 14 1.5 26 1.0
 10 12 1.5 36 1.5
 11 12 1.5 34 1.5
 12 25 1.5
 13 31 1.0
 14 16 1.5 33 1.0
 15
 16
 17 18 1.0 23 2.0
 18
 19 20 1.0 21 2.0
 20
 21 22 1.0 26 1.5
 22
 23 24 1.0
 24
 25 32 1.5 46 1.5
 26
 27 28 1.0 40 1.5
 28
 29 30 1.0 40 1.5
 30
 31 49 1.5 51 1.5
 32 38 1.5 47 1.5
 33 44 1.5 61 1.5
 34 35 1.0 47 2.0
 35
 36 37 1.0 42 2.0
 37
 38 39 1.0 63 1.5
 39
 40 41 1.0
 41
 42 43 1.0 46 1.5
 43
 44 45 1.0 59 1.5
 45
 46 53 1.5
 47 48 1.0
 48
 49 50 1.0 55 1.5
 50
 51 52 1.0 65 1.5
 52
 53 54 1.0 63 1.5
 54
 55 56 1.0 57 1.5
 56
 57 58 1.0 65 1.5
 58
 59 60 1.0 67 1.5
 60
 61 62 1.0 69 1.5
 62
 63 64 1.0
 64
 65 66 1.0
 66
 67 68 1.0 69 1.5
 68
 69 70 1.0
 70
 71 76 1.0 77 1.0
 72 80 1.0 86 1.0
 73 77 1.5 85 1.5 95 1.5
 74 81 1.0 83 1.5 86 1.5
 75 85 1.5 87 1.5 96 1.5
 76 79 1.5 83 1.5
 77 93 1.5
 78 85 1.5 89 1.5 98 1.5
 79 84 1.5 95 1.0
 80 82 1.5 105 1.5
 81 82 1.5 103 1.5
 82 140 1.5
 83 100 1.0
 84 86 1.5 102 1.0
 85
 86
 87 88 1.0 93 2.0
 88
 89 90 1.0 91 2.0
 90
 91 92 1.0 95 1.5
 92
 93 94 1.0
 94
 95
 96 97 1.0 109 1.5
 97
 98 99 1.0 109 1.5
 99
 100 118 1.5 120 1.5
 101 107 1.5 116 1.5 140 1.5
 102 113 1.5 130 1.5
 103 104 1.0 116 2.0
 104
 105 106 1.0 111 2.0
 106
 107 108 1.0 132 1.5
 108
 109 110 1.0
 110
 111 112 1.0 115 1.5
 112
 113 114 1.0 128 1.5
 114
 115 122 1.5 140 1.5
 116 117 1.0
 117
 118 119 1.0 124 1.5
 119
 120 121 1.0 134 1.5
 121
 122 123 1.0 132 1.5
 123
 124 125 1.0 126 1.5
 125
 126 127 1.0 134 1.5
 127
 128 129 1.0 136 1.5
 129
 130 131 1.0 138 1.5
 131
 132 133 1.0
 133
 134 135 1.0
 135
 136 137 1.0 138 1.5
 137
 138 139 1.0
 139
 140











































