%chk=/oasis/projects/nsf/lhu120/cmw414/pent_y_stack/1_2A/dimer/dimer.chk
%nprocshared=24
%mem=110GB
#p b3lyp/6-311g(d,p) nosymm pop=full iop(3/33=1) punch=mo

c47

0 1
 C                 -8.22611159   -7.66858059    3.53543548
 C                 -8.19811159   -6.81258059    2.47943548
 C                 -7.57711159   -7.13058059    1.24443548
 C                 -7.56211159   -6.23158059    0.15943548
 C                 -6.90711159   -6.56458059   -1.05856452
 C                 -6.85811159   -5.70058059   -2.14056452
 C                 -6.31011159   -7.90858059   -1.19256452
 C                 -6.42511159   -8.75258059   -0.13456452
 C                 -6.94611159   -8.44858059    1.11043548
 C                 -7.07211159   -9.31758059    2.20143548
 C                 -7.58411159   -9.00058059    3.40643548
 H                 -8.71611159   -7.34958059    4.60243548
 H                 -8.60711159   -5.78858059    2.57243548
 H                 -7.99611159   -5.21858059    0.29543548
 H                 -7.32511159   -4.68258059   -1.99556452
 H                 -5.96711159   -9.76358059   -0.22656452
 H                 -6.61511159  -10.32358059    2.12243548
 H                 -7.59511159   -9.67958059    4.28343548
 C                 -6.25811159   -6.01958059   -3.37856452
 C                 -5.71011159   -8.22758059   -2.43056452
 C                 -5.66011159   -7.36458059   -3.51256452
 C                 -6.14311159   -5.17658059   -4.43656452
 H                 -5.24211159   -9.24658059   -2.57556452
 C                 -5.00611159   -7.69758059   -4.73056452
 C                 -5.62111159   -5.48058059   -5.68156452
 H                 -6.60111159   -4.16558059   -4.34456452
 C                 -4.99111159   -6.79858059   -5.81556452
 H                 -4.57211159   -8.70958059   -4.86656452
 C                 -5.49611159   -4.61158059   -6.77256452
 C                 -4.37011159   -7.11558059   -7.05056452
 C                 -4.98411159   -4.92858059   -7.97756452
 H                 -5.95311159   -3.60558059   -6.69356452
 C                 -4.34211159   -6.26058059   -8.10656452
 H                 -3.96111159   -8.14058059   -7.14356452
 H                 -4.97211159   -4.24958059   -8.85456452
 H                 -3.85211159   -6.57958059   -9.17356452
 C                 -5.55955519   -5.28557798    4.80563065
 C                 -5.53155519   -4.42957798    3.74963065
 C                 -4.91055519   -4.74757798    2.51463065
 C                 -4.89555519   -3.84857798    1.42963065
 C                 -4.24055519   -4.18157798    0.21163065
 C                 -4.19155519   -3.31757798   -0.87036935
 C                 -3.64355519   -5.52557798    0.07763065
 C                 -3.75855519   -6.36957798    1.13563065
 C                 -4.27955519   -6.06557798    2.38063065
 C                 -4.40555519   -6.93457798    3.47163065
 C                 -4.91755519   -6.61757798    4.67663065
 H                 -6.04955519   -4.96657798    5.87263065
 H                 -5.94055519   -3.40557798    3.84263065
 H                 -5.32955519   -2.83557798    1.56563065
 H                 -4.65855519   -2.29957798   -0.72536935
 H                 -3.30055519   -7.38057798    1.04363065
 H                 -3.94855519   -7.94057798    3.39263065
 H                 -4.92855519   -7.29657798    5.55363065
 C                 -3.59155519   -3.63657798   -2.10836935
 C                 -3.04355519   -5.84457798   -1.16036935
 C                 -2.99355519   -4.98157798   -2.24236935
 C                 -3.47655519   -2.79357798   -3.16636935
 H                 -2.57555519   -6.86357798   -1.30536935
 C                 -2.33955519   -5.31457798   -3.46036935
 C                 -2.95455519   -3.09757798   -4.41136935
 H                 -3.93455519   -1.78257798   -3.07436935
 C                 -2.32455519   -4.41557798   -4.54536935
 H                 -1.90555519   -6.32657798   -3.59636935
 C                 -2.82955519   -2.22857798   -5.50236935
 C                 -1.70355519   -4.73257798   -5.78036935
 C                 -2.31755519   -2.54557798   -6.70736935
 H                 -3.28655519   -1.22257798   -5.42336935
 C                 -1.67555519   -3.87757798   -6.83636935
 H                 -1.29455519   -5.75757798   -5.87336935
 H                 -2.30555519   -1.86657798   -7.58436935
 H                 -1.18555519   -4.19657798   -7.90336935

 1 2 2.0 11 1.0 12 1.0
 2 3 1.5 13 1.0
 3 4 1.5 9 1.0
 4 5 1.5 14 1.0
 5 6 2.0 7 1.0
 6 15 1.0 19 1.5
 7 8 2.0 20 1.5
 8 9 2.0 16 1.0
 9 10 1.5
 10 11 2.0 17 1.0
 11 18 1.0
 12
 13
 14
 15
 16
 17
 18
 19 21 1.0 22 2.0
 20 21 2.0 23 1.0
 21 24 1.5
 22 25 2.0 26 1.0
 23
 24 27 1.5 28 1.0
 25 27 1.0 29 1.5
 26
 27 30 1.5
 28
 29 31 2.0 32 1.0
 30 33 2.0 34 1.0
 31 33 1.0 35 1.0
 32
 33 36 1.0
 34
 35
 36
 37 38 2.0 47 1.0 48 1.0
 38 39 1.5 49 1.0
 39 40 1.5 45 1.0
 40 41 1.5 50 1.0
 41 42 2.0 43 1.0
 42 51 1.0 55 1.5
 43 44 2.0 56 1.5
 44 45 2.0 52 1.0
 45 46 1.5
 46 47 2.0 53 1.0
 47 54 1.0
 48
 49
 50
 51
 52
 53
 54
 55 57 1.0 58 2.0
 56 57 2.0 59 1.0
 57 60 1.5
 58 61 2.0 62 1.0
 59
 60 63 1.5 64 1.0
 61 63 1.0 65 1.5
 62
 63 66 1.5
 64
 65 67 2.0 68 1.0
 66 69 2.0 70 1.0
 67 69 1.0 71 1.0
 68
 69 72 1.0
 70
 71
 72


