%chk=/oasis/projects/nsf/lhu120/cmw414/rc_slip_y_90/2_4A/dimer/dimer.chk
%mem=110GB
#p b3lyp/6-311g(d,p) nosymm pop=full iop(3/33=1) punch=mo

c47

2 1
 O                  1.86343256   -2.18814168   -0.63312396
 O                 -1.87688744    1.76594132   -0.63317696
 C                  3.69461456   -0.67140268   -0.87047896
 C                 -1.39648944   -0.60712468   -0.87219696
 C                  5.97175156   -1.62878468   -0.73581696
 C                  0.95630456   -1.17504168   -0.77241696
 C                  3.19421256   -1.96292068   -0.63793396
 C                  5.65376956    0.77013232   -1.23999596
 C                  1.38305156    0.18492932   -0.87218096
 C                 -3.20766744    1.54071032   -0.63799196
 C                 -2.81321944   -0.85705968   -1.03609996
 C                 -3.70805744    0.24918032   -0.87049696
 C                 -0.37497644   -1.59266368   -0.78251796
 C                  0.36153156    1.17047132   -0.78252296
 C                  5.10807156   -0.51188368   -0.94441996
 C                 -0.96975044    0.75284632   -0.77244796
 C                  5.39488456   -2.90675768   -0.47207296
 H                  6.04966056   -3.75780568   -0.31297796
 C                  4.74462556    1.84550032   -1.48258496
 H                  5.14791656    2.81613132   -1.75583896
 C                  3.38157356    1.68676032   -1.38711396
 H                  2.74968056    2.53497832   -1.59754396
 C                  4.02720956   -3.07643968   -0.43155996
 H                  3.57365556   -4.04439768   -0.25108496
 C                 -5.12151244    0.08963932   -0.94441896
 C                  2.79978656    0.43484332   -1.03611196
 C                  7.36964356   -1.42936968   -0.80567596
 H                  8.03205756   -2.27390668   -0.64047896
 C                  7.05237556    0.92132132   -1.30766596
 H                  7.47035056    1.89702532   -1.53701096
 C                 -0.64793744   -3.04866968   -0.59509396
 C                 -5.66719544   -1.19239768   -1.23993096
 C                  0.63446856    2.62647732   -0.59506596
 C                 -3.39498944   -2.10900768   -1.38701396
 H                 -2.76308144   -2.95723068   -1.59738596
 C                 -4.04067744    2.65422632   -0.43164996
 H                 -3.58713344    3.62219432   -0.25120396
 C                 -7.06580044   -1.34360768   -1.30758296
 H                 -7.48376544   -2.31932768   -1.53687896
 C                  7.89727656   -0.17032768   -1.08596396
 H                  8.97295756   -0.03707868   -1.13791896
 C                 -5.40835044    2.48452732   -0.47215796
 H                 -6.06313544    3.33557232   -0.31308796
 C                  1.19132356    3.07285032    0.61237504
 H                  1.43075056    2.35253132    1.38925504
 C                 -5.98520444    1.20653832   -0.73585396
 C                 -4.75804044   -2.26777068   -1.48246496
 H                 -5.16132144   -3.23842268   -1.75565596
 C                 -1.20495544   -3.49503768    0.61227204
 H                 -1.44447744   -2.77471768    1.38912204
 C                 -0.33428944   -3.98126668   -1.59421096
 H                  0.10494656   -3.63898068   -2.52632896
 C                 -7.38309444    1.00710232   -0.80569496
 H                 -8.04551744    1.85163832   -0.64052696
 C                 -1.46487044   -4.85334768    0.80924704
 H                 -1.90033044   -5.18805568    1.74603204
 C                 -1.16705344   -5.77762768   -0.19748196
 H                 -1.37357744   -6.83295368   -0.04661296
 C                  1.45120356    4.43116132    0.80938404
 H                  1.88654356    4.76587132    1.74622404
 C                  0.32092856    3.55907532   -1.59421596
 H                 -0.11819244    3.21678732   -2.52638696
 C                 -7.91071344   -0.25195768   -1.08592496
 H                 -8.98639244   -0.38522368   -1.13786596
 C                 -0.59829944   -5.33868768   -1.39838196
 H                 -0.36076744   -6.05187768   -2.18204296
 C                  1.15351056    5.35543932   -0.19738296
 H                  1.36000956    6.41076732   -0.04648696
 C                  0.58490756    4.91649632   -1.39835396
 H                  0.34746656    5.62968632   -2.18204196
 O                 13.27534329   -3.39184716    3.30077133
 O                  9.27890884    0.02142648    1.88555375
 C                 15.00440894   -1.94609519    2.50692289
 C                  9.92116944   -2.23535486    2.52882221
 C                 17.33806377   -2.62937605    2.96216948
 C                 12.30477107   -2.56483919    2.80812264
 C                 14.58793184   -3.09358011    3.20141788
 C                 16.86836427   -0.60979665    1.61651232
 C                 12.64098921   -1.31022277    2.21273873
 C                  7.96647980   -0.28037636    1.97595659
 C                  8.52727681   -2.62424965    2.48107528
 C                  7.55769039   -1.59826139    2.23781292
 C                 11.00482522   -3.04714095    2.96415171
 C                 11.55436657   -0.43272706    1.94424807
 C                 16.40502209   -1.72846894    2.36658086
 C                 10.25408696   -0.90763938    2.11904828
 C                 16.84388128   -3.75809185    3.68143003
 H                 17.55151452   -4.44473263    4.13541809
 C                 15.89331184    0.23700792    1.00495419
 H                 16.23509012    1.06516932    0.39113645
 C                 14.54257592    0.03144107    1.16457431
 H                 13.85880799    0.69821253    0.66365460
 C                 15.49017381   -3.99426458    3.79397648
 H                 15.09960443   -4.85737735    4.32096515
 C                 14.04029860   -1.04146232    1.95550446
 C                 18.72040751   -2.37429777    2.81114120
 H                 19.43512339   -3.05213849    3.26834821
 C                 18.25461671   -0.39861847    1.48519574
 H                 18.60997928    0.45134273    0.91023146
 C                 10.82701666   -4.34823427    3.67487612
 C                  5.70595008   -3.20534313    2.44078198
 C                 11.72596438    1.00571738    1.58228126
 C                  8.03660253   -3.95435585    2.61901373
 H                  8.72733042   -4.77530869    2.72845677
 C                  7.05741386    0.77151957    1.76735505
 H                  7.44201618    1.76687888    1.57613298
 C                  4.32193332   -3.46612140    2.44621418
 H                  3.97415094   -4.48413837    2.59450369
 C                 19.16701540   -1.27257847    2.08388562
 H                 20.23205631   -1.09438069    1.97675184
 C                  5.70504664    0.50564589    1.80453267
 H                  4.99215382    1.30885585    1.64653943
 C                 12.23164428    1.90041458    2.53677321
 H                 12.50596116    1.53301974    3.52140439
 C                  5.21958273   -0.81633275    2.03311369
 C                  6.68902000   -4.22989594    2.60102469
 C                 10.28132132   -4.35817618    4.96691477
 H                  9.98126779   -3.42151533    5.42774225
 C                 11.21891620   -5.55824169    3.08441543
 H                 11.64954449   -5.55209110    2.08769411
 C                  3.83954793   -1.12261510    2.05418465
 H                  3.11937099   -0.32373340    1.90432157
 C                 10.10982156   -5.56422132    5.65058423
 H                  9.68237531   -5.56137169    6.64883399
 C                 10.48549602   -6.77038297    5.05013895
 H                 10.34771213   -7.70851658    5.57933410
 C                 12.39660698    3.25081018    2.21963288
 H                 12.79301223    3.93443218    2.96444474
 C                 11.36715069    1.48358751    0.31372304
 H                 10.96740436    0.79438557   -0.42393179
 C                  3.40220566   -2.42971850    2.25998845
 C                 11.04329054   -6.76416191    3.76673066
 H                 11.34099330   -7.69683813    3.29697102
 C                 12.05428588    3.71925309    0.94689244
 H                 12.18706454    4.76795060    0.69843325
 C                 11.53628120    2.83301739   -0.00419595
 H                 11.26453579    3.19143839   -0.99256526
 C                  6.15952094   -1.87008347    2.24060385
 H                  6.36117897   -5.24312060    2.70492870
 H                  2.35372444   -2.64297954    2.27032611

 1 6 1.0 7 1.0
 2 10 1.0 16 1.0
 3 7 1.5 15 1.5 26 1.5
 4 11 1.0 13 1.5 16 1.5
 5 15 1.5 17 1.5 27 1.5
 6 9 1.5 13 1.5
 7 23 1.5
 8 15 1.5 19 1.5 29 1.5
 9 14 1.5 26 1.0
 10 12 1.5 36 1.5
 11 12 1.5 34 1.5
 12 25 1.5
 13 31 1.0
 14 16 1.5 33 1.0
 15
 16
 17 18 1.0 23 2.0
 18
 19 20 1.0 21 2.0
 20
 21 22 1.0 26 1.5
 22
 23 24 1.0
 24
 25 32 1.5 46 1.5
 26
 27 28 1.0 40 1.5
 28
 29 30 1.0 40 1.5
 30
 31 49 1.5 51 1.5
 32 38 1.5 47 1.5
 33 44 1.5 61 1.5
 34 35 1.0 47 2.0
 35
 36 37 1.0 42 2.0
 37
 38 39 1.0 63 1.5
 39
 40 41 1.0
 41
 42 43 1.0 46 1.5
 43
 44 45 1.0 59 1.5
 45
 46 53 1.5
 47 48 1.0
 48
 49 50 1.0 55 1.5
 50
 51 52 1.0 65 1.5
 52
 53 54 1.0 63 1.5
 54
 55 56 1.0 57 1.5
 56
 57 58 1.0 65 1.5
 58
 59 60 1.0 67 1.5
 60
 61 62 1.0 69 1.5
 62
 63 64 1.0
 64
 65 66 1.0
 66
 67 68 1.0 69 1.5
 68
 69 70 1.0
 70
 71 76 1.0 77 1.0
 72 80 1.0 86 1.0
 73 77 1.5 85 1.5 95 1.5
 74 81 1.0 83 1.5 86 1.5
 75 85 1.5 87 1.5 96 1.5
 76 79 1.5 83 1.5
 77 93 1.5
 78 85 1.5 89 1.5 98 1.5
 79 84 1.5 95 1.0
 80 82 1.5 105 1.5
 81 82 1.5 103 1.5
 82 140 1.5
 83 100 1.0
 84 86 1.5 102 1.0
 85
 86
 87 88 1.0 93 2.0
 88
 89 90 1.0 91 2.0
 90
 91 92 1.0 95 1.5
 92
 93 94 1.0
 94
 95
 96 97 1.0 109 1.5
 97
 98 99 1.0 109 1.5
 99
 100 118 1.5 120 1.5
 101 107 1.5 116 1.5 140 1.5
 102 113 1.5 130 1.5
 103 104 1.0 116 2.0
 104
 105 106 1.0 111 2.0
 106
 107 108 1.0 132 1.5
 108
 109 110 1.0
 110
 111 112 1.0 115 1.5
 112
 113 114 1.0 128 1.5
 114
 115 122 1.5 140 1.5
 116 117 1.0
 117
 118 119 1.0 124 1.5
 119
 120 121 1.0 134 1.5
 121
 122 123 1.0 132 1.5
 123
 124 125 1.0 126 1.5
 125
 126 127 1.0 134 1.5
 127
 128 129 1.0 136 1.5
 129
 130 131 1.0 138 1.5
 131
 132 133 1.0
 133
 134 135 1.0
 135
 136 137 1.0 138 1.5
 137
 138 139 1.0
 139
 140































