%chk=/oasis/projects/nsf/lhu120/cmw414/rc_slip_y_90/2_6A/dimer/dimer.chk
%mem=110GB
#p b3lyp/6-311g(d,p) nosymm pop=full iop(3/33=1) punch=mo

c47

2 1
 O                  1.86343256   -2.18814168   -0.63312396
 O                 -1.87688744    1.76594132   -0.63317696
 C                  3.69461456   -0.67140268   -0.87047896
 C                 -1.39648944   -0.60712468   -0.87219696
 C                  5.97175156   -1.62878468   -0.73581696
 C                  0.95630456   -1.17504168   -0.77241696
 C                  3.19421256   -1.96292068   -0.63793396
 C                  5.65376956    0.77013232   -1.23999596
 C                  1.38305156    0.18492932   -0.87218096
 C                 -3.20766744    1.54071032   -0.63799196
 C                 -2.81321944   -0.85705968   -1.03609996
 C                 -3.70805744    0.24918032   -0.87049696
 C                 -0.37497644   -1.59266368   -0.78251796
 C                  0.36153156    1.17047132   -0.78252296
 C                  5.10807156   -0.51188368   -0.94441996
 C                 -0.96975044    0.75284632   -0.77244796
 C                  5.39488456   -2.90675768   -0.47207296
 H                  6.04966056   -3.75780568   -0.31297796
 C                  4.74462556    1.84550032   -1.48258496
 H                  5.14791656    2.81613132   -1.75583896
 C                  3.38157356    1.68676032   -1.38711396
 H                  2.74968056    2.53497832   -1.59754396
 C                  4.02720956   -3.07643968   -0.43155996
 H                  3.57365556   -4.04439768   -0.25108496
 C                 -5.12151244    0.08963932   -0.94441896
 C                  2.79978656    0.43484332   -1.03611196
 C                  7.36964356   -1.42936968   -0.80567596
 H                  8.03205756   -2.27390668   -0.64047896
 C                  7.05237556    0.92132132   -1.30766596
 H                  7.47035056    1.89702532   -1.53701096
 C                 -0.64793744   -3.04866968   -0.59509396
 C                 -5.66719544   -1.19239768   -1.23993096
 C                  0.63446856    2.62647732   -0.59506596
 C                 -3.39498944   -2.10900768   -1.38701396
 H                 -2.76308144   -2.95723068   -1.59738596
 C                 -4.04067744    2.65422632   -0.43164996
 H                 -3.58713344    3.62219432   -0.25120396
 C                 -7.06580044   -1.34360768   -1.30758296
 H                 -7.48376544   -2.31932768   -1.53687896
 C                  7.89727656   -0.17032768   -1.08596396
 H                  8.97295756   -0.03707868   -1.13791896
 C                 -5.40835044    2.48452732   -0.47215796
 H                 -6.06313544    3.33557232   -0.31308796
 C                  1.19132356    3.07285032    0.61237504
 H                  1.43075056    2.35253132    1.38925504
 C                 -5.98520444    1.20653832   -0.73585396
 C                 -4.75804044   -2.26777068   -1.48246496
 H                 -5.16132144   -3.23842268   -1.75565596
 C                 -1.20495544   -3.49503768    0.61227204
 H                 -1.44447744   -2.77471768    1.38912204
 C                 -0.33428944   -3.98126668   -1.59421096
 H                  0.10494656   -3.63898068   -2.52632896
 C                 -7.38309444    1.00710232   -0.80569496
 H                 -8.04551744    1.85163832   -0.64052696
 C                 -1.46487044   -4.85334768    0.80924704
 H                 -1.90033044   -5.18805568    1.74603204
 C                 -1.16705344   -5.77762768   -0.19748196
 H                 -1.37357744   -6.83295368   -0.04661296
 C                  1.45120356    4.43116132    0.80938404
 H                  1.88654356    4.76587132    1.74622404
 C                  0.32092856    3.55907532   -1.59421596
 H                 -0.11819244    3.21678732   -2.52638696
 C                 -7.91071344   -0.25195768   -1.08592496
 H                 -8.98639244   -0.38522368   -1.13786596
 C                 -0.59829944   -5.33868768   -1.39838196
 H                 -0.36076744   -6.05187768   -2.18204296
 C                  1.15351056    5.35543932   -0.19738296
 H                  1.36000956    6.41076732   -0.04648696
 C                  0.58490756    4.91649632   -1.39835396
 H                  0.34746656    5.62968632   -2.18204196
 O                 13.36086080   -3.57100287    3.32506093
 O                  9.36442635   -0.15772923    1.90984335
 C                 15.08992645   -2.12525090    2.53121249
 C                 10.00668695   -2.41451057    2.55311181
 C                 17.42358128   -2.80853176    2.98645908
 C                 12.39028858   -2.74399490    2.83241224
 C                 14.67344935   -3.27273582    3.22570748
 C                 16.95388178   -0.78895236    1.64080192
 C                 12.72650672   -1.48937848    2.23702833
 C                  8.05199731   -0.45953207    2.00024619
 C                  8.61279432   -2.80340536    2.50536488
 C                  7.64320790   -1.77741710    2.26210252
 C                 11.09034273   -3.22629666    2.98844131
 C                 11.63988408   -0.61188277    1.96853767
 C                 16.49053960   -1.90762465    2.39087046
 C                 10.33960447   -1.08679509    2.14333788
 C                 16.92939879   -3.93724756    3.70571963
 H                 17.63703203   -4.62388834    4.15970769
 C                 15.97882935    0.05785221    1.02924379
 H                 16.32060763    0.88601361    0.41542605
 C                 14.62809343   -0.14771464    1.18886391
 H                 13.94432550    0.51905682    0.68794420
 C                 15.57569132   -4.17342029    3.81826608
 H                 15.18512194   -5.03653306    4.34525475
 C                 14.12581611   -1.22061803    1.97979406
 C                 18.80592502   -2.55345348    2.83543080
 H                 19.52064090   -3.23129420    3.29263781
 C                 18.34013422   -0.57777418    1.50948534
 H                 18.69549679    0.27218702    0.93452106
 C                 10.91253417   -4.52738998    3.69916572
 C                  5.79146759   -3.38449884    2.46507158
 C                 11.81148189    0.82656167    1.60657086
 C                  8.12212004   -4.13351156    2.64330333
 H                  8.81284793   -4.95446440    2.75274637
 C                  7.14293137    0.59236386    1.79164465
 H                  7.52753369    1.58772317    1.60042258
 C                  4.40745083   -3.64527711    2.47050378
 H                  4.05966845   -4.66329408    2.61879329
 C                 19.25253291   -1.45173418    2.10817522
 H                 20.31757382   -1.27353640    2.00104144
 C                  5.79056415    0.32649018    1.82882227
 H                  5.07767133    1.12970014    1.67082903
 C                 12.31716179    1.72125887    2.56106281
 H                 12.59147867    1.35386403    3.54569399
 C                  5.30510024   -0.99548846    2.05740329
 C                  6.77453751   -4.40905165    2.62531429
 C                 10.36683883   -4.53733189    4.99120437
 H                 10.06678530   -3.60067104    5.45203185
 C                 11.30443371   -5.73739740    3.10870503
 H                 11.73506200   -5.73124681    2.11198371
 C                  3.92506544   -1.30177081    2.07847425
 H                  3.20488850   -0.50288911    1.92861117
 C                 10.19533907   -5.74337703    5.67487383
 H                  9.76789282   -5.74052740    6.67312359
 C                 10.57101353   -6.94953868    5.07442855
 H                 10.43322964   -7.88767229    5.60362370
 C                 12.48212449    3.07165447    2.24392248
 H                 12.87852974    3.75527647    2.98873434
 C                 11.45266820    1.30443180    0.33801264
 H                 11.05292187    0.61522986   -0.39964219
 C                  3.48772317   -2.60887421    2.28427805
 C                 11.12880805   -6.94331762    3.79102026
 H                 11.42651081   -7.87599384    3.32126062
 C                 12.13980339    3.54009738    0.97118204
 H                 12.27258205    4.58879489    0.72272285
 C                 11.62179871    2.65386168    0.02009365
 H                 11.35005330    3.01228268   -0.96827566
 C                  6.24503845   -2.04923918    2.26489345
 H                  6.44669648   -5.42227631    2.72921830
 H                  2.43924195   -2.82213525    2.29461571

 1 6 1.0 7 1.0
 2 10 1.0 16 1.0
 3 7 1.5 15 1.5 26 1.5
 4 11 1.0 13 1.5 16 1.5
 5 15 1.5 17 1.5 27 1.5
 6 9 1.5 13 1.5
 7 23 1.5
 8 15 1.5 19 1.5 29 1.5
 9 14 1.5 26 1.0
 10 12 1.5 36 1.5
 11 12 1.5 34 1.5
 12 25 1.5
 13 31 1.0
 14 16 1.5 33 1.0
 15
 16
 17 18 1.0 23 2.0
 18
 19 20 1.0 21 2.0
 20
 21 22 1.0 26 1.5
 22
 23 24 1.0
 24
 25 32 1.5 46 1.5
 26
 27 28 1.0 40 1.5
 28
 29 30 1.0 40 1.5
 30
 31 49 1.5 51 1.5
 32 38 1.5 47 1.5
 33 44 1.5 61 1.5
 34 35 1.0 47 2.0
 35
 36 37 1.0 42 2.0
 37
 38 39 1.0 63 1.5
 39
 40 41 1.0
 41
 42 43 1.0 46 1.5
 43
 44 45 1.0 59 1.5
 45
 46 53 1.5
 47 48 1.0
 48
 49 50 1.0 55 1.5
 50
 51 52 1.0 65 1.5
 52
 53 54 1.0 63 1.5
 54
 55 56 1.0 57 1.5
 56
 57 58 1.0 65 1.5
 58
 59 60 1.0 67 1.5
 60
 61 62 1.0 69 1.5
 62
 63 64 1.0
 64
 65 66 1.0
 66
 67 68 1.0 69 1.5
 68
 69 70 1.0
 70
 71 76 1.0 77 1.0
 72 80 1.0 86 1.0
 73 77 1.5 85 1.5 95 1.5
 74 81 1.0 83 1.5 86 1.5
 75 85 1.5 87 1.5 96 1.5
 76 79 1.5 83 1.5
 77 93 1.5
 78 85 1.5 89 1.5 98 1.5
 79 84 1.5 95 1.0
 80 82 1.5 105 1.5
 81 82 1.5 103 1.5
 82 140 1.5
 83 100 1.0
 84 86 1.5 102 1.0
 85
 86
 87 88 1.0 93 2.0
 88
 89 90 1.0 91 2.0
 90
 91 92 1.0 95 1.5
 92
 93 94 1.0
 94
 95
 96 97 1.0 109 1.5
 97
 98 99 1.0 109 1.5
 99
 100 118 1.5 120 1.5
 101 107 1.5 116 1.5 140 1.5
 102 113 1.5 130 1.5
 103 104 1.0 116 2.0
 104
 105 106 1.0 111 2.0
 106
 107 108 1.0 132 1.5
 108
 109 110 1.0
 110
 111 112 1.0 115 1.5
 112
 113 114 1.0 128 1.5
 114
 115 122 1.5 140 1.5
 116 117 1.0
 117
 118 119 1.0 124 1.5
 119
 120 121 1.0 134 1.5
 121
 122 123 1.0 132 1.5
 123
 124 125 1.0 126 1.5
 125
 126 127 1.0 134 1.5
 127
 128 129 1.0 136 1.5
 129
 130 131 1.0 138 1.5
 131
 132 133 1.0
 133
 134 135 1.0
 135
 136 137 1.0 138 1.5
 137
 138 139 1.0
 139
 140



































