%chk=/home/cmw414/pcpl_transfer_integral/rc_stack/3_6A/dimer/dimer.chk
%nprocshared=20
%mem=110GB
#p b3lyp/6-311g(d,p) nosymm pop=full iop(3/33=1) punch=mo

c47

2 1
 O                  1.85838471   -2.34647544   -1.21183368
 O                 -1.88193529    1.60760756   -1.21188668
 C                  3.68956671   -0.82973644   -1.44918868
 C                 -1.40153729   -0.76545844   -1.45090668
 C                  5.96670371   -1.78711844   -1.31452668
 C                  0.95125671   -1.33337544   -1.35112668
 C                  3.18916471   -2.12125444   -1.21664368
 C                  5.64872171    0.61179856   -1.81870568
 C                  1.37800371    0.02659556   -1.45089068
 C                 -3.21271529    1.38237656   -1.21670168
 C                 -2.81826729   -1.01539344   -1.61480968
 C                 -3.71310529    0.09084656   -1.44920668
 C                 -0.38002429   -1.75099744   -1.36122768
 C                  0.35648371    1.01213756   -1.36123268
 C                  5.10302371   -0.67021744   -1.52312968
 C                 -0.97479829    0.59451256   -1.35115768
 C                  5.38983671   -3.06509144   -1.05078268
 H                  6.04461271   -3.91613944   -0.89168768
 C                  4.73957771    1.68716656   -2.06129468
 H                  5.14286871    2.65779756   -2.33454868
 C                  3.37652571    1.52842656   -1.96582368
 H                  2.74463271    2.37664456   -2.17625368
 C                  4.02216171   -3.23477344   -1.01026968
 H                  3.56860771   -4.20273144   -0.82979468
 C                 -5.12656029   -0.06869444   -1.52312868
 C                  2.79473871    0.27650956   -1.61482168
 C                  7.36459571   -1.58770344   -1.38438568
 H                  8.02700971   -2.43224044   -1.21918868
 C                  7.04732771    0.76298756   -1.88637568
 H                  7.46530271    1.73869156   -2.11572068
 C                 -0.65298529   -3.20700344   -1.17380368
 C                 -5.67224329   -1.35073144   -1.81864068
 C                  0.62942071    2.46814356   -1.17377568
 C                 -3.40003729   -2.26734144   -1.96572368
 H                 -2.76812929   -3.11556444   -2.17609568
 C                 -4.04572529    2.49589256   -1.01035968
 H                 -3.59218129    3.46386056   -0.82991368
 C                 -7.07084829   -1.50194144   -1.88629268
 H                 -7.48881329   -2.47766144   -2.11558868
 C                  7.89222871   -0.32866144   -1.66467368
 H                  8.96790971   -0.19541244   -1.71662868
 C                 -5.41339829    2.32619356   -1.05086768
 H                 -6.06818329    3.17723856   -0.89179768
 C                  1.18627571    2.91451656    0.03366532
 H                  1.42570271    2.19419756    0.81054532
 C                 -5.99025229    1.04820456   -1.31456368
 C                 -4.76308829   -2.42610444   -2.06117468
 H                 -5.16636929   -3.39675644   -2.33436568
 C                 -1.21000329   -3.65337144    0.03356232
 H                 -1.44952529   -2.93305144    0.81041232
 C                 -0.33933729   -4.13960044   -2.17292068
 H                  0.09989871   -3.79731444   -3.10503868
 C                 -7.38814229    0.84876856   -1.38440468
 H                 -8.05056529    1.69330456   -1.21923668
 C                 -1.46991829   -5.01168144    0.23053732
 H                 -1.90537829   -5.34638944    1.16732232
 C                 -1.17210129   -5.93596144   -0.77619168
 H                 -1.37862529   -6.99128744   -0.62532268
 C                  1.44615571    4.27282756    0.23067432
 H                  1.88149571    4.60753756    1.16751432
 C                  0.31588071    3.40074156   -2.17292568
 H                 -0.12324029    3.05845356   -3.10509668
 C                 -7.91576129   -0.41029144   -1.66463468
 H                 -8.99144029   -0.54355744   -1.71657568
 C                 -0.60334729   -5.49702144   -1.97709168
 H                 -0.36581529   -6.21021144   -2.76075268
 C                  1.14846271    5.19710556   -0.77609268
 H                  1.35496171    6.25243356   -0.62519668
 C                  0.57985971    4.75816256   -1.97706368
 H                  0.34241871    5.47135256   -2.76075168
 O                 12.24913308   -1.24197860    3.00929613
 O                  8.25269863    2.17129504    1.59407855
 C                 13.97819873    0.20377337    2.21544769
 C                  8.89495923   -0.08548630    2.23734701
 C                 16.31185356   -0.47950749    2.67069428
 C                 11.27856086   -0.41497063    2.51664744
 C                 13.56172163   -0.94371155    2.90994268
 C                 15.84215406    1.54007191    1.32503712
 C                 11.61477900    0.83964579    1.92126353
 C                  6.94026959    1.86949220    1.68448139
 C                  7.50106660   -0.47438109    2.18960008
 C                  6.53148018    0.55160717    1.94633772
 C                  9.97861501   -0.89727239    2.67267651
 C                 10.52815636    1.71714150    1.65277287
 C                 15.37881188    0.42139962    2.07510566
 C                  9.22787675    1.24222918    1.82757308
 C                 15.81767107   -1.60822329    3.38995483
 H                 16.52530431   -2.29486407    3.84394289
 C                 14.86710163    2.38687648    0.71347899
 H                 15.20887991    3.21503788    0.09966125
 C                 13.51636571    2.18130963    0.87309911
 H                 12.83259778    2.84808109    0.37217940
 C                 14.46396360   -1.84439602    3.50250128
 H                 14.07339422   -2.70750879    4.02948995
 C                 13.01408839    1.10840624    1.66402926
 C                 17.69419730   -0.22442921    2.51966600
 H                 18.40891318   -0.90226993    2.97687301
 C                 17.22840650    1.75125009    1.19372054
 H                 17.58376907    2.60121129    0.61875626
 C                  9.80080645   -2.19836571    3.38340092
 C                  4.67973987   -1.05547457    2.14930678
 C                 10.69975417    3.15558594    1.29080606
 C                  7.01039232   -1.80448729    2.32753853
 H                  7.70112021   -2.62544013    2.43698157
 C                  6.03120365    2.92138813    1.47587985
 H                  6.41580597    3.91674744    1.28465778
 C                  3.29572311   -1.31625284    2.15473898
 H                  2.94794073   -2.33426981    2.30302849
 C                 18.14080519    0.87729009    1.79241042
 H                 19.20584610    1.05548787    1.68527664
 C                  4.67883643    2.65551445    1.51305747
 H                  3.96594361    3.45872441    1.35506423
 C                 11.20543407    4.05028314    2.24529801
 H                 11.47975095    3.68288830    3.22992919
 C                  4.19337252    1.33353581    1.74163849
 C                  5.66280979   -2.08002738    2.30954949
 H                  5.33006108   -3.10841972    2.41500891
 C                  9.25511111   -2.20830762    4.67543957
 H                  8.95505758   -1.27164677    5.13626705
 C                 10.19270599   -3.40837313    2.79294023
 H                 10.62333428   -3.40222254    1.79621891
 C                  2.81333772    1.02725346    1.76270945
 H                  2.09316078    1.82613516    1.61284637
 C                  9.08361135   -3.41435276    5.35910903
 H                  8.65616510   -3.41150313    6.35735879
 C                  9.45928581   -4.62051441    4.75866375
 H                  9.32150192   -5.55864802    5.28785890
 C                 11.37039677    5.40067874    1.92815768
 H                 11.76680202    6.08430074    2.67296954
 C                 10.34094048    3.63345607    0.02224784
 H                  9.94119415    2.94425413   -0.71540699
 C                  2.37599545   -0.27984994    1.96851325
 H                  1.31267231   -0.49612983    1.97899725
 C                 10.01708033   -4.61429335    3.47525546
 H                 10.31478309   -5.54696957    3.00549582
 C                 11.02807567    5.86912165    0.65541724
 H                 11.16085433    6.91781916    0.40695805
 C                 10.51007099    4.98288595   -0.29567115
 H                 10.23832558    5.34130695   -1.28404046
 C                  5.13331073    0.27978509    1.94912865

 1 6 1.0 7 1.0
 2 10 1.0 16 1.0
 3 7 1.5 15 1.5 26 1.5
 4 11 1.0 13 1.5 16 1.5
 5 15 1.5 17 1.5 27 1.5
 6 9 1.5 13 1.5
 7 23 1.5
 8 15 1.5 19 1.5 29 1.5
 9 14 1.5 26 1.0
 10 12 1.5 36 1.5
 11 12 1.5 34 1.5
 12 25 1.5
 13 31 1.0
 14 16 1.5 33 1.0
 15
 16
 17 18 1.0 23 2.0
 18
 19 20 1.0 21 2.0
 20
 21 22 1.0 26 1.5
 22
 23 24 1.0
 24
 25 32 1.5 46 1.5
 26
 27 28 1.0 40 1.5
 28
 29 30 1.0 40 1.5
 30
 31 49 1.5 51 1.5
 32 38 1.5 47 1.5
 33 44 1.5 61 1.5
 34 35 1.0 47 2.0
 35
 36 37 1.0 42 2.0
 37
 38 39 1.0 63 1.5
 39
 40 41 1.0
 41
 42 43 1.0 46 1.5
 43
 44 45 1.0 59 1.5
 45
 46 53 1.5
 47 48 1.0
 48
 49 50 1.0 55 1.5
 50
 51 52 1.0 65 1.5
 52
 53 54 1.0 63 1.5
 54
 55 56 1.0 57 1.5
 56
 57 58 1.0 65 1.5
 58
 59 60 1.0 67 1.5
 60
 61 62 1.0 69 1.5
 62
 63 64 1.0
 64
 65 66 1.0
 66
 67 68 1.0 69 1.5
 68
 69 70 1.0
 70
 71 76 1.0 77 1.0
 72 80 1.0 86 1.0
 73 77 1.5 85 1.5 95 1.5
 74 81 1.0 83 1.5 86 1.5
 75 85 1.5 87 1.5 96 1.5
 76 79 1.5 83 1.5
 77 93 1.5
 78 85 1.5 89 1.5 98 1.5
 79 84 1.5 95 1.0
 80 82 1.5 105 1.5
 81 82 1.5 103 1.5
 82 140 1.5
 83 100 1.0
 84 86 1.5 102 1.0
 85
 86
 87 88 1.0 93 2.0
 88
 89 90 1.0 91 2.0
 90
 91 92 1.0 95 1.5
 92
 93 94 1.0
 94
 95
 96 97 1.0 109 1.5
 97
 98 99 1.0 109 1.5
 99
 100 118 1.5 120 1.5
 101 107 1.5 116 1.5 140 1.5
 102 113 1.5 130 1.5
 103 104 1.0 116 2.0
 104
 105 106 1.0 111 2.0
 106
 107 108 1.0 132 1.5
 108
 109 110 1.0
 110
 111 112 1.0 115 1.5
 112
 113 114 1.0 128 1.5
 114
 115 122 1.5 140 1.5
 116 117 1.0
 117
 118 119 1.0 124 1.5
 119
 120 121 1.0 134 1.5
 121
 122 123 1.0 132 1.5
 123
 124 125 1.0 126 1.5
 125
 126 127 1.0 134 1.5
 127
 128 129 1.0 136 1.5
 129
 130 131 1.0 138 1.5
 131
 132 133 1.0
 133
 134 135 1.0
 135
 136 137 1.0 138 1.5
 137
 138 139 1.0
 139
 140

