%chk=/home/cmw414/pcpl_transfer_integral/rc_stack/2_8A/dimer/dimer.chk
%nprocshared=20
%mem=110GB
#p b3lyp/6-311g(d,p) nosymm pop=full iop(3/33=1) punch=mo

c47

2 1
 O                  1.86511517   -2.13536376   -0.44022072
 O                 -1.87520483    1.81871924   -0.44027372
 C                  3.69629717   -0.61862476   -0.67757572
 C                 -1.39480683   -0.55434676   -0.67929372
 C                  5.97343417   -1.57600676   -0.54291372
 C                  0.95798717   -1.12226376   -0.57951372
 C                  3.19589517   -1.91014276   -0.44503072
 C                  5.65545217    0.82291024   -1.04709272
 C                  1.38473417    0.23770724   -0.67927772
 C                 -3.20598483    1.59348824   -0.44508872
 C                 -2.81153683   -0.80428176   -0.84319672
 C                 -3.70637483    0.30195824   -0.67759372
 C                 -0.37329383   -1.53988576   -0.58961472
 C                  0.36321417    1.22324924   -0.58961972
 C                  5.10975417   -0.45910576   -0.75151672
 C                 -0.96806783    0.80562424   -0.57954472
 C                  5.39656717   -2.85397976   -0.27916972
 H                  6.05134317   -3.70502776   -0.12007472
 C                  4.74630817    1.89827824   -1.28968172
 H                  5.14959917    2.86890924   -1.56293572
 C                  3.38325617    1.73953824   -1.19421072
 H                  2.75136317    2.58775624   -1.40464072
 C                  4.02889217   -3.02366176   -0.23865672
 H                  3.57533817   -3.99161976   -0.05818172
 C                 -5.11982983    0.14241724   -0.75151572
 C                  2.80146917    0.48762124   -0.84320872
 C                  7.37132617   -1.37659176   -0.61277272
 H                  8.03374017   -2.22112876   -0.44757572
 C                  7.05405817    0.97409924   -1.11476272
 H                  7.47203317    1.94980324   -1.34410772
 C                 -0.64625483   -2.99589176   -0.40219072
 C                 -5.66551283   -1.13961976   -1.04702772
 C                  0.63615117    2.67925524   -0.40216272
 C                 -3.39330683   -2.05622976   -1.19411072
 H                 -2.76139883   -2.90445276   -1.40448272
 C                 -4.03899483    2.70700424   -0.23874672
 H                 -3.58545083    3.67497224   -0.05830072
 C                 -7.06411783   -1.29082976   -1.11467972
 H                 -7.48208283   -2.26654976   -1.34397572
 C                  7.89895917   -0.11754976   -0.89306072
 H                  8.97464017    0.01569924   -0.94501572
 C                 -5.40666783    2.53730524   -0.27925472
 H                 -6.06145283    3.38835024   -0.12018472
 C                  1.19300617    3.12562824    0.80527828
 H                  1.43243317    2.40530924    1.58215828
 C                 -5.98352183    1.25931624   -0.54295072
 C                 -4.75635783   -2.21499276   -1.28956172
 H                 -5.15963883   -3.18564476   -1.56275272
 C                 -1.20327283   -3.44225976    0.80517528
 H                 -1.44279483   -2.72193976    1.58202528
 C                 -0.33260683   -3.92848876   -1.40130772
 H                  0.10662917   -3.58620276   -2.33342572
 C                 -7.38141183    1.05988024   -0.61279172
 H                 -8.04383483    1.90441624   -0.44762372
 C                 -1.46318783   -4.80056976    1.00215028
 H                 -1.89864783   -5.13527776    1.93893528
 C                 -1.16537083   -5.72484976   -0.00457872
 H                 -1.37189483   -6.78017576    0.14629028
 C                  1.45288617    4.48393924    1.00228728
 H                  1.88822617    4.81864924    1.93912728
 C                  0.32261117    3.61185324   -1.40131272
 H                 -0.11650983    3.26956524   -2.33348372
 C                 -7.90903083   -0.19917976   -0.89302172
 H                 -8.98470983   -0.33244576   -0.94496272
 C                 -0.59661683   -5.28590976   -1.20547872
 H                 -0.35908483   -5.99909976   -1.98913972
 C                  1.15519317    5.40821724   -0.00447972
 H                  1.36169217    6.46354524    0.14641628
 C                  0.58659017    4.96927424   -1.20545072
 H                  0.34914917    5.68246424   -1.98913872
 O                 12.24913308   -1.24197860    3.00929613
 O                  8.25269863    2.17129504    1.59407855
 C                 13.97819873    0.20377337    2.21544769
 C                  8.89495923   -0.08548630    2.23734701
 C                 16.31185356   -0.47950749    2.67069428
 C                 11.27856086   -0.41497063    2.51664744
 C                 13.56172163   -0.94371155    2.90994268
 C                 15.84215406    1.54007191    1.32503712
 C                 11.61477900    0.83964579    1.92126353
 C                  6.94026959    1.86949220    1.68448139
 C                  7.50106660   -0.47438109    2.18960008
 C                  6.53148018    0.55160717    1.94633772
 C                  9.97861501   -0.89727239    2.67267651
 C                 10.52815636    1.71714150    1.65277287
 C                 15.37881188    0.42139962    2.07510566
 C                  9.22787675    1.24222918    1.82757308
 C                 15.81767107   -1.60822329    3.38995483
 H                 16.52530431   -2.29486407    3.84394289
 C                 14.86710163    2.38687648    0.71347899
 H                 15.20887991    3.21503788    0.09966125
 C                 13.51636571    2.18130963    0.87309911
 H                 12.83259778    2.84808109    0.37217940
 C                 14.46396360   -1.84439602    3.50250128
 H                 14.07339422   -2.70750879    4.02948995
 C                 13.01408839    1.10840624    1.66402926
 C                 17.69419730   -0.22442921    2.51966600
 H                 18.40891318   -0.90226993    2.97687301
 C                 17.22840650    1.75125009    1.19372054
 H                 17.58376907    2.60121129    0.61875626
 C                  9.80080645   -2.19836571    3.38340092
 C                  4.67973987   -1.05547457    2.14930678
 C                 10.69975417    3.15558594    1.29080606
 C                  7.01039232   -1.80448729    2.32753853
 H                  7.70112021   -2.62544013    2.43698157
 C                  6.03120365    2.92138813    1.47587985
 H                  6.41580597    3.91674744    1.28465778
 C                  3.29572311   -1.31625284    2.15473898
 H                  2.94794073   -2.33426981    2.30302849
 C                 18.14080519    0.87729009    1.79241042
 H                 19.20584610    1.05548787    1.68527664
 C                  4.67883643    2.65551445    1.51305747
 H                  3.96594361    3.45872441    1.35506423
 C                 11.20543407    4.05028314    2.24529801
 H                 11.47975095    3.68288830    3.22992919
 C                  4.19337252    1.33353581    1.74163849
 C                  5.66280979   -2.08002738    2.30954949
 H                  5.33006108   -3.10841972    2.41500891
 C                  9.25511111   -2.20830762    4.67543957
 H                  8.95505758   -1.27164677    5.13626705
 C                 10.19270599   -3.40837313    2.79294023
 H                 10.62333428   -3.40222254    1.79621891
 C                  2.81333772    1.02725346    1.76270945
 H                  2.09316078    1.82613516    1.61284637
 C                  9.08361135   -3.41435276    5.35910903
 H                  8.65616510   -3.41150313    6.35735879
 C                  9.45928581   -4.62051441    4.75866375
 H                  9.32150192   -5.55864802    5.28785890
 C                 11.37039677    5.40067874    1.92815768
 H                 11.76680202    6.08430074    2.67296954
 C                 10.34094048    3.63345607    0.02224784
 H                  9.94119415    2.94425413   -0.71540699
 C                  2.37599545   -0.27984994    1.96851325
 H                  1.31267231   -0.49612983    1.97899725
 C                 10.01708033   -4.61429335    3.47525546
 H                 10.31478309   -5.54696957    3.00549582
 C                 11.02807567    5.86912165    0.65541724
 H                 11.16085433    6.91781916    0.40695805
 C                 10.51007099    4.98288595   -0.29567115
 H                 10.23832558    5.34130695   -1.28404046
 C                  5.13331073    0.27978509    1.94912865

 1 6 1.0 7 1.0
 2 10 1.0 16 1.0
 3 7 1.5 15 1.5 26 1.5
 4 11 1.0 13 1.5 16 1.5
 5 15 1.5 17 1.5 27 1.5
 6 9 1.5 13 1.5
 7 23 1.5
 8 15 1.5 19 1.5 29 1.5
 9 14 1.5 26 1.0
 10 12 1.5 36 1.5
 11 12 1.5 34 1.5
 12 25 1.5
 13 31 1.0
 14 16 1.5 33 1.0
 15
 16
 17 18 1.0 23 2.0
 18
 19 20 1.0 21 2.0
 20
 21 22 1.0 26 1.5
 22
 23 24 1.0
 24
 25 32 1.5 46 1.5
 26
 27 28 1.0 40 1.5
 28
 29 30 1.0 40 1.5
 30
 31 49 1.5 51 1.5
 32 38 1.5 47 1.5
 33 44 1.5 61 1.5
 34 35 1.0 47 2.0
 35
 36 37 1.0 42 2.0
 37
 38 39 1.0 63 1.5
 39
 40 41 1.0
 41
 42 43 1.0 46 1.5
 43
 44 45 1.0 59 1.5
 45
 46 53 1.5
 47 48 1.0
 48
 49 50 1.0 55 1.5
 50
 51 52 1.0 65 1.5
 52
 53 54 1.0 63 1.5
 54
 55 56 1.0 57 1.5
 56
 57 58 1.0 65 1.5
 58
 59 60 1.0 67 1.5
 60
 61 62 1.0 69 1.5
 62
 63 64 1.0
 64
 65 66 1.0
 66
 67 68 1.0 69 1.5
 68
 69 70 1.0
 70
 71 76 1.0 77 1.0
 72 80 1.0 86 1.0
 73 77 1.5 85 1.5 95 1.5
 74 81 1.0 83 1.5 86 1.5
 75 85 1.5 87 1.5 96 1.5
 76 79 1.5 83 1.5
 77 93 1.5
 78 85 1.5 89 1.5 98 1.5
 79 84 1.5 95 1.0
 80 82 1.5 105 1.5
 81 82 1.5 103 1.5
 82 140 1.5
 83 100 1.0
 84 86 1.5 102 1.0
 85
 86
 87 88 1.0 93 2.0
 88
 89 90 1.0 91 2.0
 90
 91 92 1.0 95 1.5
 92
 93 94 1.0
 94
 95
 96 97 1.0 109 1.5
 97
 98 99 1.0 109 1.5
 99
 100 118 1.5 120 1.5
 101 107 1.5 116 1.5 140 1.5
 102 113 1.5 130 1.5
 103 104 1.0 116 2.0
 104
 105 106 1.0 111 2.0
 106
 107 108 1.0 132 1.5
 108
 109 110 1.0
 110
 111 112 1.0 115 1.5
 112
 113 114 1.0 128 1.5
 114
 115 122 1.5 140 1.5
 116 117 1.0
 117
 118 119 1.0 124 1.5
 119
 120 121 1.0 134 1.5
 121
 122 123 1.0 132 1.5
 123
 124 125 1.0 126 1.5
 125
 126 127 1.0 134 1.5
 127
 128 129 1.0 136 1.5
 129
 130 131 1.0 138 1.5
 131
 132 133 1.0
 133
 134 135 1.0
 135
 136 137 1.0 138 1.5
 137
 138 139 1.0
 139
 140

