%chk=/oasis/projects/nsf/lhu120/cmw414/rc_slip_y_90/3_0A/dimer/dimer.chk
%mem=110GB
#p b3lyp/6-311g(d,p) nosymm pop=full iop(3/33=1) punch=mo

c47

2 1
 O                  1.86343256   -2.18814168   -0.63312396
 O                 -1.87688744    1.76594132   -0.63317696
 C                  3.69461456   -0.67140268   -0.87047896
 C                 -1.39648944   -0.60712468   -0.87219696
 C                  5.97175156   -1.62878468   -0.73581696
 C                  0.95630456   -1.17504168   -0.77241696
 C                  3.19421256   -1.96292068   -0.63793396
 C                  5.65376956    0.77013232   -1.23999596
 C                  1.38305156    0.18492932   -0.87218096
 C                 -3.20766744    1.54071032   -0.63799196
 C                 -2.81321944   -0.85705968   -1.03609996
 C                 -3.70805744    0.24918032   -0.87049696
 C                 -0.37497644   -1.59266368   -0.78251796
 C                  0.36153156    1.17047132   -0.78252296
 C                  5.10807156   -0.51188368   -0.94441996
 C                 -0.96975044    0.75284632   -0.77244796
 C                  5.39488456   -2.90675768   -0.47207296
 H                  6.04966056   -3.75780568   -0.31297796
 C                  4.74462556    1.84550032   -1.48258496
 H                  5.14791656    2.81613132   -1.75583896
 C                  3.38157356    1.68676032   -1.38711396
 H                  2.74968056    2.53497832   -1.59754396
 C                  4.02720956   -3.07643968   -0.43155996
 H                  3.57365556   -4.04439768   -0.25108496
 C                 -5.12151244    0.08963932   -0.94441896
 C                  2.79978656    0.43484332   -1.03611196
 C                  7.36964356   -1.42936968   -0.80567596
 H                  8.03205756   -2.27390668   -0.64047896
 C                  7.05237556    0.92132132   -1.30766596
 H                  7.47035056    1.89702532   -1.53701096
 C                 -0.64793744   -3.04866968   -0.59509396
 C                 -5.66719544   -1.19239768   -1.23993096
 C                  0.63446856    2.62647732   -0.59506596
 C                 -3.39498944   -2.10900768   -1.38701396
 H                 -2.76308144   -2.95723068   -1.59738596
 C                 -4.04067744    2.65422632   -0.43164996
 H                 -3.58713344    3.62219432   -0.25120396
 C                 -7.06580044   -1.34360768   -1.30758296
 H                 -7.48376544   -2.31932768   -1.53687896
 C                  7.89727656   -0.17032768   -1.08596396
 H                  8.97295756   -0.03707868   -1.13791896
 C                 -5.40835044    2.48452732   -0.47215796
 H                 -6.06313544    3.33557232   -0.31308796
 C                  1.19132356    3.07285032    0.61237504
 H                  1.43075056    2.35253132    1.38925504
 C                 -5.98520444    1.20653832   -0.73585396
 C                 -4.75804044   -2.26777068   -1.48246496
 H                 -5.16132144   -3.23842268   -1.75565596
 C                 -1.20495544   -3.49503768    0.61227204
 H                 -1.44447744   -2.77471768    1.38912204
 C                 -0.33428944   -3.98126668   -1.59421096
 H                  0.10494656   -3.63898068   -2.52632896
 C                 -7.38309444    1.00710232   -0.80569496
 H                 -8.04551744    1.85163832   -0.64052696
 C                 -1.46487044   -4.85334768    0.80924704
 H                 -1.90033044   -5.18805568    1.74603204
 C                 -1.16705344   -5.77762768   -0.19748196
 H                 -1.37357744   -6.83295368   -0.04661296
 C                  1.45120356    4.43116132    0.80938404
 H                  1.88654356    4.76587132    1.74622404
 C                  0.32092856    3.55907532   -1.59421596
 H                 -0.11819244    3.21678732   -2.52638696
 C                 -7.91071344   -0.25195768   -1.08592496
 H                 -8.98639244   -0.38522368   -1.13786596
 C                 -0.59829944   -5.33868768   -1.39838196
 H                 -0.36076744   -6.05187768   -2.18204296
 C                  1.15351056    5.35543932   -0.19738296
 H                  1.36000956    6.41076732   -0.04648696
 C                  0.58490756    4.91649632   -1.39835396
 H                  0.34746656    5.62968632   -2.18204196
 O                 13.53189583   -3.92931430    3.37364012
 O                  9.53546138   -0.51604066    1.95842254
 C                 15.26096148   -2.48356233    2.57979168
 C                 10.17772198   -2.77282200    2.60169100
 C                 17.59461631   -3.16684319    3.03503827
 C                 12.56132361   -3.10230633    2.88099143
 C                 14.84448438   -3.63104725    3.27428667
 C                 17.12491681   -1.14726379    1.68938111
 C                 12.89754175   -1.84768991    2.28560752
 C                  8.22303234   -0.81784350    2.04882538
 C                  8.78382935   -3.16171679    2.55394407
 C                  7.81424293   -2.13572853    2.31068171
 C                 11.26137776   -3.58460809    3.03702050
 C                 11.81091911   -0.97019420    2.01711686
 C                 16.66157463   -2.26593608    2.43944965
 C                 10.51063950   -1.44510652    2.19191707
 C                 17.10043382   -4.29555899    3.75429882
 H                 17.80806706   -4.98219977    4.20828688
 C                 16.14986438   -0.30045922    1.07782298
 H                 16.49164266    0.52770218    0.46400524
 C                 14.79912846   -0.50602607    1.23744310
 H                 14.11536053    0.16074539    0.73652339
 C                 15.74672635   -4.53173172    3.86684527
 H                 15.35615697   -5.39484449    4.39383394
 C                 14.29685114   -1.57892946    2.02837325
 C                 18.97696005   -2.91176491    2.88400999
 H                 19.69167593   -3.58960563    3.34121700
 C                 18.51116925   -0.93608561    1.55806453
 H                 18.86653182   -0.08612441    0.98310025
 C                 11.08356920   -4.88570141    3.74774491
 C                  5.96250262   -3.74281027    2.51365077
 C                 11.98251692    0.46825024    1.65515005
 C                  8.29315507   -4.49182299    2.69188252
 H                  8.98388296   -5.31277583    2.80132556
 C                  7.31396640    0.23405243    1.84022384
 H                  7.69856872    1.22941174    1.64900177
 C                  4.57848586   -4.00358854    2.51908297
 H                  4.23070348   -5.02160551    2.66737248
 C                 19.42356794   -1.81004561    2.15675441
 H                 20.48860885   -1.63184783    2.04962063
 C                  5.96159918   -0.03182125    1.87740146
 H                  5.24870636    0.77138871    1.71940822
 C                 12.48819682    1.36294744    2.60964200
 H                 12.76251370    0.99555260    3.59427318
 C                  5.47613527   -1.35379989    2.10598248
 C                  6.94557254   -4.76736308    2.67389348
 C                 10.53787386   -4.89564332    5.03978356
 H                 10.23782033   -3.95898247    5.50061104
 C                 11.47546874   -6.09570883    3.15728422
 H                 11.90609703   -6.08955824    2.16056290
 C                  4.09610047   -1.66008224    2.12705344
 H                  3.37592353   -0.86120054    1.97719036
 C                 10.36637410   -6.10168846    5.72345302
 H                  9.93892785   -6.09883883    6.72170278
 C                 10.74204856   -7.30785011    5.12300774
 H                 10.60426467   -8.24598372    5.65220289
 C                 12.65315952    2.71334304    2.29250167
 H                 13.04956477    3.39696504    3.03731353
 C                 11.62370323    0.94612037    0.38659183
 H                 11.22395690    0.25691843   -0.35106300
 C                  3.65875820   -2.96718564    2.33285724
 C                 11.29984308   -7.30162905    3.83959945
 H                 11.59754584   -8.23430527    3.36983981
 C                 12.31083842    3.18178595    1.01976123
 H                 12.44361708    4.23048346    0.77130204
 C                 11.79283374    2.29555025    0.06867284
 H                 11.52108833    2.65397125   -0.91969647
 C                  6.41607348   -2.40755061    2.31347264
 H                  6.61773151   -5.78058774    2.77779749
 H                  2.61027698   -3.18044668    2.34319490

 1 6 1.0 7 1.0
 2 10 1.0 16 1.0
 3 7 1.5 15 1.5 26 1.5
 4 11 1.0 13 1.5 16 1.5
 5 15 1.5 17 1.5 27 1.5
 6 9 1.5 13 1.5
 7 23 1.5
 8 15 1.5 19 1.5 29 1.5
 9 14 1.5 26 1.0
 10 12 1.5 36 1.5
 11 12 1.5 34 1.5
 12 25 1.5
 13 31 1.0
 14 16 1.5 33 1.0
 15
 16
 17 18 1.0 23 2.0
 18
 19 20 1.0 21 2.0
 20
 21 22 1.0 26 1.5
 22
 23 24 1.0
 24
 25 32 1.5 46 1.5
 26
 27 28 1.0 40 1.5
 28
 29 30 1.0 40 1.5
 30
 31 49 1.5 51 1.5
 32 38 1.5 47 1.5
 33 44 1.5 61 1.5
 34 35 1.0 47 2.0
 35
 36 37 1.0 42 2.0
 37
 38 39 1.0 63 1.5
 39
 40 41 1.0
 41
 42 43 1.0 46 1.5
 43
 44 45 1.0 59 1.5
 45
 46 53 1.5
 47 48 1.0
 48
 49 50 1.0 55 1.5
 50
 51 52 1.0 65 1.5
 52
 53 54 1.0 63 1.5
 54
 55 56 1.0 57 1.5
 56
 57 58 1.0 65 1.5
 58
 59 60 1.0 67 1.5
 60
 61 62 1.0 69 1.5
 62
 63 64 1.0
 64
 65 66 1.0
 66
 67 68 1.0 69 1.5
 68
 69 70 1.0
 70
 71 76 1.0 77 1.0
 72 80 1.0 86 1.0
 73 77 1.5 85 1.5 95 1.5
 74 81 1.0 83 1.5 86 1.5
 75 85 1.5 87 1.5 96 1.5
 76 79 1.5 83 1.5
 77 93 1.5
 78 85 1.5 89 1.5 98 1.5
 79 84 1.5 95 1.0
 80 82 1.5 105 1.5
 81 82 1.5 103 1.5
 82 140 1.5
 83 100 1.0
 84 86 1.5 102 1.0
 85
 86
 87 88 1.0 93 2.0
 88
 89 90 1.0 91 2.0
 90
 91 92 1.0 95 1.5
 92
 93 94 1.0
 94
 95
 96 97 1.0 109 1.5
 97
 98 99 1.0 109 1.5
 99
 100 118 1.5 120 1.5
 101 107 1.5 116 1.5 140 1.5
 102 113 1.5 130 1.5
 103 104 1.0 116 2.0
 104
 105 106 1.0 111 2.0
 106
 107 108 1.0 132 1.5
 108
 109 110 1.0
 110
 111 112 1.0 115 1.5
 112
 113 114 1.0 128 1.5
 114
 115 122 1.5 140 1.5
 116 117 1.0
 117
 118 119 1.0 124 1.5
 119
 120 121 1.0 134 1.5
 121
 122 123 1.0 132 1.5
 123
 124 125 1.0 126 1.5
 125
 126 127 1.0 134 1.5
 127
 128 129 1.0 136 1.5
 129
 130 131 1.0 138 1.5
 131
 132 133 1.0
 133
 134 135 1.0
 135
 136 137 1.0 138 1.5
 137
 138 139 1.0
 139
 140







































