%chk=/home/cmw414/pcpl_transfer_integral/rc_stack/4_6A/dimer/dimer.chk
%nprocshared=20
%mem=110GB
#p b3lyp/6-311g(d,p) nosymm pop=full iop(3/33=1) punch=mo

c47

2 1
 O                  1.84997164   -2.61036504   -2.17634988
 O                 -1.89034836    1.34371796   -2.17640288
 C                  3.68115364   -1.09362604   -2.41370488
 C                 -1.40995036   -1.02934804   -2.41542288
 C                  5.95829064   -2.05100804   -2.27904288
 C                  0.94284364   -1.59726504   -2.31564288
 C                  3.18075164   -2.38514404   -2.18115988
 C                  5.64030864    0.34790896   -2.78322188
 C                  1.36959064   -0.23729404   -2.41540688
 C                 -3.22112836    1.11848696   -2.18121788
 C                 -2.82668036   -1.27928304   -2.57932588
 C                 -3.72151836   -0.17304304   -2.41372288
 C                 -0.38843736   -2.01488704   -2.32574388
 C                  0.34807064    0.74824796   -2.32574888
 C                  5.09461064   -0.93410704   -2.48764588
 C                 -0.98321136    0.33062296   -2.31567388
 C                  5.38142364   -3.32898104   -2.01529888
 H                  6.03619964   -4.18002904   -1.85620388
 C                  4.73116464    1.42327696   -3.02581088
 H                  5.13445564    2.39390796   -3.29906488
 C                  3.36811264    1.26453696   -2.93033988
 H                  2.73621964    2.11275496   -3.14076988
 C                  4.01374864   -3.49866304   -1.97478588
 H                  3.56019464   -4.46662104   -1.79431088
 C                 -5.13497336   -0.33258404   -2.48764488
 C                  2.78632564    0.01261996   -2.57933788
 C                  7.35618264   -1.85159304   -2.34890188
 H                  8.01859664   -2.69613004   -2.18370488
 C                  7.03891464    0.49909796   -2.85089188
 H                  7.45688964    1.47480196   -3.08023688
 C                 -0.66139836   -3.47089304   -2.13831988
 C                 -5.68065636   -1.61462104   -2.78315688
 C                  0.62100764    2.20425396   -2.13829188
 C                 -3.40845036   -2.53123104   -2.93023988
 H                 -2.77654236   -3.37945404   -3.14061188
 C                 -4.05413836    2.23200296   -1.97487588
 H                 -3.60059436    3.19997096   -1.79442988
 C                 -7.07926136   -1.76583104   -2.85080888
 H                 -7.49722636   -2.74155104   -3.08010488
 C                  7.88381564   -0.59255104   -2.62918988
 H                  8.95949664   -0.45930204   -2.68114488
 C                 -5.42181136    2.06230396   -2.01538388
 H                 -6.07659636    2.91334896   -1.85631388
 C                  1.17786264    2.65062696   -0.93085088
 H                  1.41728964    1.93030796   -0.15397088
 C                 -5.99866536    0.78431496   -2.27907988
 C                 -4.77150136   -2.68999404   -3.02569088
 H                 -5.17478236   -3.66064604   -3.29888188
 C                 -1.21841636   -3.91726104   -0.93095388
 H                 -1.45793836   -3.19694104   -0.15410388
 C                 -0.34775036   -4.40349004   -3.13743688
 H                  0.09148564   -4.06120404   -4.06955488
 C                 -7.39655536    0.58487896   -2.34892088
 H                 -8.05897836    1.42941496   -2.18375288
 C                 -1.47833136   -5.27557104   -0.73397888
 H                 -1.91379136   -5.61027904    0.20280612
 C                 -1.18051436   -6.19985104   -1.74070788
 H                 -1.38703836   -7.25517704   -1.58983888
 C                  1.43774264    4.00893796   -0.73384188
 H                  1.87308264    4.34364796    0.20299812
 C                  0.30746764    3.13685196   -3.13744188
 H                 -0.13165336    2.79456396   -4.06961288
 C                 -7.92417436   -0.67418104   -2.62915088
 H                 -8.99985336   -0.80744704   -2.68109188
 C                 -0.61176036   -5.76091104   -2.94160788
 H                 -0.37422836   -6.47410104   -3.72526888
 C                  1.14004964    4.93321596   -1.74060888
 H                  1.34654864    5.98854396   -1.58971288
 C                  0.57144664    4.49427296   -2.94157988
 H                  0.33400564    5.20746296   -3.72526788
 O                 12.24913308   -1.24197860    3.00929613
 O                  8.25269863    2.17129504    1.59407855
 C                 13.97819873    0.20377337    2.21544769
 C                  8.89495923   -0.08548630    2.23734701
 C                 16.31185356   -0.47950749    2.67069428
 C                 11.27856086   -0.41497063    2.51664744
 C                 13.56172163   -0.94371155    2.90994268
 C                 15.84215406    1.54007191    1.32503712
 C                 11.61477900    0.83964579    1.92126353
 C                  6.94026959    1.86949220    1.68448139
 C                  7.50106660   -0.47438109    2.18960008
 C                  6.53148018    0.55160717    1.94633772
 C                  9.97861501   -0.89727239    2.67267651
 C                 10.52815636    1.71714150    1.65277287
 C                 15.37881188    0.42139962    2.07510566
 C                  9.22787675    1.24222918    1.82757308
 C                 15.81767107   -1.60822329    3.38995483
 H                 16.52530431   -2.29486407    3.84394289
 C                 14.86710163    2.38687648    0.71347899
 H                 15.20887991    3.21503788    0.09966125
 C                 13.51636571    2.18130963    0.87309911
 H                 12.83259778    2.84808109    0.37217940
 C                 14.46396360   -1.84439602    3.50250128
 H                 14.07339422   -2.70750879    4.02948995
 C                 13.01408839    1.10840624    1.66402926
 C                 17.69419730   -0.22442921    2.51966600
 H                 18.40891318   -0.90226993    2.97687301
 C                 17.22840650    1.75125009    1.19372054
 H                 17.58376907    2.60121129    0.61875626
 C                  9.80080645   -2.19836571    3.38340092
 C                  4.67973987   -1.05547457    2.14930678
 C                 10.69975417    3.15558594    1.29080606
 C                  7.01039232   -1.80448729    2.32753853
 H                  7.70112021   -2.62544013    2.43698157
 C                  6.03120365    2.92138813    1.47587985
 H                  6.41580597    3.91674744    1.28465778
 C                  3.29572311   -1.31625284    2.15473898
 H                  2.94794073   -2.33426981    2.30302849
 C                 18.14080519    0.87729009    1.79241042
 H                 19.20584610    1.05548787    1.68527664
 C                  4.67883643    2.65551445    1.51305747
 H                  3.96594361    3.45872441    1.35506423
 C                 11.20543407    4.05028314    2.24529801
 H                 11.47975095    3.68288830    3.22992919
 C                  4.19337252    1.33353581    1.74163849
 C                  5.66280979   -2.08002738    2.30954949
 H                  5.33006108   -3.10841972    2.41500891
 C                  9.25511111   -2.20830762    4.67543957
 H                  8.95505758   -1.27164677    5.13626705
 C                 10.19270599   -3.40837313    2.79294023
 H                 10.62333428   -3.40222254    1.79621891
 C                  2.81333772    1.02725346    1.76270945
 H                  2.09316078    1.82613516    1.61284637
 C                  9.08361135   -3.41435276    5.35910903
 H                  8.65616510   -3.41150313    6.35735879
 C                  9.45928581   -4.62051441    4.75866375
 H                  9.32150192   -5.55864802    5.28785890
 C                 11.37039677    5.40067874    1.92815768
 H                 11.76680202    6.08430074    2.67296954
 C                 10.34094048    3.63345607    0.02224784
 H                  9.94119415    2.94425413   -0.71540699
 C                  2.37599545   -0.27984994    1.96851325
 H                  1.31267231   -0.49612983    1.97899725
 C                 10.01708033   -4.61429335    3.47525546
 H                 10.31478309   -5.54696957    3.00549582
 C                 11.02807567    5.86912165    0.65541724
 H                 11.16085433    6.91781916    0.40695805
 C                 10.51007099    4.98288595   -0.29567115
 H                 10.23832558    5.34130695   -1.28404046
 C                  5.13331073    0.27978509    1.94912865

 1 6 1.0 7 1.0
 2 10 1.0 16 1.0
 3 7 1.5 15 1.5 26 1.5
 4 11 1.0 13 1.5 16 1.5
 5 15 1.5 17 1.5 27 1.5
 6 9 1.5 13 1.5
 7 23 1.5
 8 15 1.5 19 1.5 29 1.5
 9 14 1.5 26 1.0
 10 12 1.5 36 1.5
 11 12 1.5 34 1.5
 12 25 1.5
 13 31 1.0
 14 16 1.5 33 1.0
 15
 16
 17 18 1.0 23 2.0
 18
 19 20 1.0 21 2.0
 20
 21 22 1.0 26 1.5
 22
 23 24 1.0
 24
 25 32 1.5 46 1.5
 26
 27 28 1.0 40 1.5
 28
 29 30 1.0 40 1.5
 30
 31 49 1.5 51 1.5
 32 38 1.5 47 1.5
 33 44 1.5 61 1.5
 34 35 1.0 47 2.0
 35
 36 37 1.0 42 2.0
 37
 38 39 1.0 63 1.5
 39
 40 41 1.0
 41
 42 43 1.0 46 1.5
 43
 44 45 1.0 59 1.5
 45
 46 53 1.5
 47 48 1.0
 48
 49 50 1.0 55 1.5
 50
 51 52 1.0 65 1.5
 52
 53 54 1.0 63 1.5
 54
 55 56 1.0 57 1.5
 56
 57 58 1.0 65 1.5
 58
 59 60 1.0 67 1.5
 60
 61 62 1.0 69 1.5
 62
 63 64 1.0
 64
 65 66 1.0
 66
 67 68 1.0 69 1.5
 68
 69 70 1.0
 70
 71 76 1.0 77 1.0
 72 80 1.0 86 1.0
 73 77 1.5 85 1.5 95 1.5
 74 81 1.0 83 1.5 86 1.5
 75 85 1.5 87 1.5 96 1.5
 76 79 1.5 83 1.5
 77 93 1.5
 78 85 1.5 89 1.5 98 1.5
 79 84 1.5 95 1.0
 80 82 1.5 105 1.5
 81 82 1.5 103 1.5
 82 140 1.5
 83 100 1.0
 84 86 1.5 102 1.0
 85
 86
 87 88 1.0 93 2.0
 88
 89 90 1.0 91 2.0
 90
 91 92 1.0 95 1.5
 92
 93 94 1.0
 94
 95
 96 97 1.0 109 1.5
 97
 98 99 1.0 109 1.5
 99
 100 118 1.5 120 1.5
 101 107 1.5 116 1.5 140 1.5
 102 113 1.5 130 1.5
 103 104 1.0 116 2.0
 104
 105 106 1.0 111 2.0
 106
 107 108 1.0 132 1.5
 108
 109 110 1.0
 110
 111 112 1.0 115 1.5
 112
 113 114 1.0 128 1.5
 114
 115 122 1.5 140 1.5
 116 117 1.0
 117
 118 119 1.0 124 1.5
 119
 120 121 1.0 134 1.5
 121
 122 123 1.0 132 1.5
 123
 124 125 1.0 126 1.5
 125
 126 127 1.0 134 1.5
 127
 128 129 1.0 136 1.5
 129
 130 131 1.0 138 1.5
 131
 132 133 1.0
 133
 134 135 1.0
 135
 136 137 1.0 138 1.5
 137
 138 139 1.0
 139
 140

