%chk=/home/cmw414/pcpl_transfer_integral/rc_stack/2_4A/dimer/dimer.chk
%nprocshared=20
%mem=110GB
#p b3lyp/6-311g(d,p) nosymm pop=full iop(3/33=1) punch=mo

c47

2 1
 O                  1.86848039   -2.02980792   -0.05441424
 O                 -1.87183961    1.92427508   -0.05446724
 C                  3.69966239   -0.51306892   -0.29176924
 C                 -1.39144161   -0.44879092   -0.29348724
 C                  5.97679939   -1.47045092   -0.15710724
 C                  0.96135239   -1.01670792   -0.19370724
 C                  3.19926039   -1.80458692   -0.05922424
 C                  5.65881739    0.92846608   -0.66128624
 C                  1.38809939    0.34326308   -0.29347124
 C                 -3.20261961    1.69904408   -0.05928224
 C                 -2.80817161   -0.69872592   -0.45739024
 C                 -3.70300961    0.40751408   -0.29178724
 C                 -0.36992861   -1.43432992   -0.20380824
 C                  0.36657939    1.32880508   -0.20381324
 C                  5.11311939   -0.35354992   -0.36571024
 C                 -0.96470261    0.91118008   -0.19373824
 C                  5.39993239   -2.74842392    0.10663676
 H                  6.05470839   -3.59947192    0.26573176
 C                  4.74967339    2.00383408   -0.90387524
 H                  5.15296439    2.97446508   -1.17712924
 C                  3.38662139    1.84509408   -0.80840424
 H                  2.75472839    2.69331208   -1.01883424
 C                  4.03225739   -2.91810592    0.14714976
 H                  3.57870339   -3.88606392    0.32762476
 C                 -5.11646461    0.24797308   -0.36570924
 C                  2.80483439    0.59317708   -0.45740224
 C                  7.37469139   -1.27103592   -0.22696624
 H                  8.03710539   -2.11557292   -0.06176924
 C                  7.05742339    1.07965508   -0.72895624
 H                  7.47539839    2.05535908   -0.95830124
 C                 -0.64288961   -2.89033592   -0.01638424
 C                 -5.66214761   -1.03406392   -0.66122124
 C                  0.63951639    2.78481108   -0.01635624
 C                 -3.38994161   -1.95067392   -0.80830424
 H                 -2.75803361   -2.79889692   -1.01867624
 C                 -4.03562961    2.81256008    0.14705976
 H                 -3.58208561    3.78052808    0.32750576
 C                 -7.06075261   -1.18527392   -0.72887324
 H                 -7.47871761   -2.16099392   -0.95816924
 C                  7.90232439   -0.01199392   -0.50725424
 H                  8.97800539    0.12125508   -0.55920924
 C                 -5.40330261    2.64286108    0.10655176
 H                 -6.05808761    3.49390608    0.26562176
 C                  1.19637139    3.23118408    1.19108476
 H                  1.43579839    2.51086508    1.96796476
 C                 -5.98015661    1.36487208   -0.15714424
 C                 -4.75299261   -2.10943692   -0.90375524
 H                 -5.15627361   -3.08008892   -1.17694624
 C                 -1.19990761   -3.33670392    1.19098176
 H                 -1.43942961   -2.61638392    1.96783176
 C                 -0.32924161   -3.82293292   -1.01550124
 H                  0.10999439   -3.48064692   -1.94761924
 C                 -7.37804661    1.16543608   -0.22698524
 H                 -8.04046961    2.00997208   -0.06181724
 C                 -1.45982261   -4.69501392    1.38795676
 H                 -1.89528261   -5.02972192    2.32474176
 C                 -1.16200561   -5.61929392    0.38122776
 H                 -1.36852961   -6.67461992    0.53209676
 C                  1.45625139    4.58949508    1.38809376
 H                  1.89159139    4.92420508    2.32493376
 C                  0.32597639    3.71740908   -1.01550624
 H                 -0.11314461    3.37512108   -1.94767724
 C                 -7.90566561   -0.09362392   -0.50721524
 H                 -8.98134461   -0.22688992   -0.55915624
 C                 -0.59325161   -5.18035392   -0.81967224
 H                 -0.35571961   -5.89354392   -1.60333324
 C                  1.15855839    5.51377308    0.38132676
 H                  1.36505739    6.56910108    0.53222276
 C                  0.58995539    5.07483008   -0.81964424
 H                  0.35251439    5.78802008   -1.60333224
 O                 12.24913308   -1.24197860    3.00929613
 O                  8.25269863    2.17129504    1.59407855
 C                 13.97819873    0.20377337    2.21544769
 C                  8.89495923   -0.08548630    2.23734701
 C                 16.31185356   -0.47950749    2.67069428
 C                 11.27856086   -0.41497063    2.51664744
 C                 13.56172163   -0.94371155    2.90994268
 C                 15.84215406    1.54007191    1.32503712
 C                 11.61477900    0.83964579    1.92126353
 C                  6.94026959    1.86949220    1.68448139
 C                  7.50106660   -0.47438109    2.18960008
 C                  6.53148018    0.55160717    1.94633772
 C                  9.97861501   -0.89727239    2.67267651
 C                 10.52815636    1.71714150    1.65277287
 C                 15.37881188    0.42139962    2.07510566
 C                  9.22787675    1.24222918    1.82757308
 C                 15.81767107   -1.60822329    3.38995483
 H                 16.52530431   -2.29486407    3.84394289
 C                 14.86710163    2.38687648    0.71347899
 H                 15.20887991    3.21503788    0.09966125
 C                 13.51636571    2.18130963    0.87309911
 H                 12.83259778    2.84808109    0.37217940
 C                 14.46396360   -1.84439602    3.50250128
 H                 14.07339422   -2.70750879    4.02948995
 C                 13.01408839    1.10840624    1.66402926
 C                 17.69419730   -0.22442921    2.51966600
 H                 18.40891318   -0.90226993    2.97687301
 C                 17.22840650    1.75125009    1.19372054
 H                 17.58376907    2.60121129    0.61875626
 C                  9.80080645   -2.19836571    3.38340092
 C                  4.67973987   -1.05547457    2.14930678
 C                 10.69975417    3.15558594    1.29080606
 C                  7.01039232   -1.80448729    2.32753853
 H                  7.70112021   -2.62544013    2.43698157
 C                  6.03120365    2.92138813    1.47587985
 H                  6.41580597    3.91674744    1.28465778
 C                  3.29572311   -1.31625284    2.15473898
 H                  2.94794073   -2.33426981    2.30302849
 C                 18.14080519    0.87729009    1.79241042
 H                 19.20584610    1.05548787    1.68527664
 C                  4.67883643    2.65551445    1.51305747
 H                  3.96594361    3.45872441    1.35506423
 C                 11.20543407    4.05028314    2.24529801
 H                 11.47975095    3.68288830    3.22992919
 C                  4.19337252    1.33353581    1.74163849
 C                  5.66280979   -2.08002738    2.30954949
 H                  5.33006108   -3.10841972    2.41500891
 C                  9.25511111   -2.20830762    4.67543957
 H                  8.95505758   -1.27164677    5.13626705
 C                 10.19270599   -3.40837313    2.79294023
 H                 10.62333428   -3.40222254    1.79621891
 C                  2.81333772    1.02725346    1.76270945
 H                  2.09316078    1.82613516    1.61284637
 C                  9.08361135   -3.41435276    5.35910903
 H                  8.65616510   -3.41150313    6.35735879
 C                  9.45928581   -4.62051441    4.75866375
 H                  9.32150192   -5.55864802    5.28785890
 C                 11.37039677    5.40067874    1.92815768
 H                 11.76680202    6.08430074    2.67296954
 C                 10.34094048    3.63345607    0.02224784
 H                  9.94119415    2.94425413   -0.71540699
 C                  2.37599545   -0.27984994    1.96851325
 H                  1.31267231   -0.49612983    1.97899725
 C                 10.01708033   -4.61429335    3.47525546
 H                 10.31478309   -5.54696957    3.00549582
 C                 11.02807567    5.86912165    0.65541724
 H                 11.16085433    6.91781916    0.40695805
 C                 10.51007099    4.98288595   -0.29567115
 H                 10.23832558    5.34130695   -1.28404046
 C                  5.13331073    0.27978509    1.94912865

 1 6 1.0 7 1.0
 2 10 1.0 16 1.0
 3 7 1.5 15 1.5 26 1.5
 4 11 1.0 13 1.5 16 1.5
 5 15 1.5 17 1.5 27 1.5
 6 9 1.5 13 1.5
 7 23 1.5
 8 15 1.5 19 1.5 29 1.5
 9 14 1.5 26 1.0
 10 12 1.5 36 1.5
 11 12 1.5 34 1.5
 12 25 1.5
 13 31 1.0
 14 16 1.5 33 1.0
 15
 16
 17 18 1.0 23 2.0
 18
 19 20 1.0 21 2.0
 20
 21 22 1.0 26 1.5
 22
 23 24 1.0
 24
 25 32 1.5 46 1.5
 26
 27 28 1.0 40 1.5
 28
 29 30 1.0 40 1.5
 30
 31 49 1.5 51 1.5
 32 38 1.5 47 1.5
 33 44 1.5 61 1.5
 34 35 1.0 47 2.0
 35
 36 37 1.0 42 2.0
 37
 38 39 1.0 63 1.5
 39
 40 41 1.0
 41
 42 43 1.0 46 1.5
 43
 44 45 1.0 59 1.5
 45
 46 53 1.5
 47 48 1.0
 48
 49 50 1.0 55 1.5
 50
 51 52 1.0 65 1.5
 52
 53 54 1.0 63 1.5
 54
 55 56 1.0 57 1.5
 56
 57 58 1.0 65 1.5
 58
 59 60 1.0 67 1.5
 60
 61 62 1.0 69 1.5
 62
 63 64 1.0
 64
 65 66 1.0
 66
 67 68 1.0 69 1.5
 68
 69 70 1.0
 70
 71 76 1.0 77 1.0
 72 80 1.0 86 1.0
 73 77 1.5 85 1.5 95 1.5
 74 81 1.0 83 1.5 86 1.5
 75 85 1.5 87 1.5 96 1.5
 76 79 1.5 83 1.5
 77 93 1.5
 78 85 1.5 89 1.5 98 1.5
 79 84 1.5 95 1.0
 80 82 1.5 105 1.5
 81 82 1.5 103 1.5
 82 140 1.5
 83 100 1.0
 84 86 1.5 102 1.0
 85
 86
 87 88 1.0 93 2.0
 88
 89 90 1.0 91 2.0
 90
 91 92 1.0 95 1.5
 92
 93 94 1.0
 94
 95
 96 97 1.0 109 1.5
 97
 98 99 1.0 109 1.5
 99
 100 118 1.5 120 1.5
 101 107 1.5 116 1.5 140 1.5
 102 113 1.5 130 1.5
 103 104 1.0 116 2.0
 104
 105 106 1.0 111 2.0
 106
 107 108 1.0 132 1.5
 108
 109 110 1.0
 110
 111 112 1.0 115 1.5
 112
 113 114 1.0 128 1.5
 114
 115 122 1.5 140 1.5
 116 117 1.0
 117
 118 119 1.0 124 1.5
 119
 120 121 1.0 134 1.5
 121
 122 123 1.0 132 1.5
 123
 124 125 1.0 126 1.5
 125
 126 127 1.0 134 1.5
 127
 128 129 1.0 136 1.5
 129
 130 131 1.0 138 1.5
 131
 132 133 1.0
 133
 134 135 1.0
 135
 136 137 1.0 138 1.5
 137
 138 139 1.0
 139
 140

