%chk=/oasis/projects/nsf/lhu120/cmw414/rc_slip_x_new/2_0A/dimer/dimer.chk
%mem=110GB
#p b3lyp/6-311g(d,p) nosymm pop=full iop(3/33=1) punch=mo

c47

2 1
 O                  1.86343256   -2.18814168   -0.63312396
 O                 -1.87688744    1.76594132   -0.63317696
 C                  3.69461456   -0.67140268   -0.87047896
 C                 -1.39648944   -0.60712468   -0.87219696
 C                  5.97175156   -1.62878468   -0.73581696
 C                  0.95630456   -1.17504168   -0.77241696
 C                  3.19421256   -1.96292068   -0.63793396
 C                  5.65376956    0.77013232   -1.23999596
 C                  1.38305156    0.18492932   -0.87218096
 C                 -3.20766744    1.54071032   -0.63799196
 C                 -2.81321944   -0.85705968   -1.03609996
 C                 -3.70805744    0.24918032   -0.87049696
 C                 -0.37497644   -1.59266368   -0.78251796
 C                  0.36153156    1.17047132   -0.78252296
 C                  5.10807156   -0.51188368   -0.94441996
 C                 -0.96975044    0.75284632   -0.77244796
 C                  5.39488456   -2.90675768   -0.47207296
 H                  6.04966056   -3.75780568   -0.31297796
 C                  4.74462556    1.84550032   -1.48258496
 H                  5.14791656    2.81613132   -1.75583896
 C                  3.38157356    1.68676032   -1.38711396
 H                  2.74968056    2.53497832   -1.59754396
 C                  4.02720956   -3.07643968   -0.43155996
 H                  3.57365556   -4.04439768   -0.25108496
 C                 -5.12151244    0.08963932   -0.94441896
 C                  2.79978656    0.43484332   -1.03611196
 C                  7.36964356   -1.42936968   -0.80567596
 H                  8.03205756   -2.27390668   -0.64047896
 C                  7.05237556    0.92132132   -1.30766596
 H                  7.47035056    1.89702532   -1.53701096
 C                 -0.64793744   -3.04866968   -0.59509396
 C                 -5.66719544   -1.19239768   -1.23993096
 C                  0.63446856    2.62647732   -0.59506596
 C                 -3.39498944   -2.10900768   -1.38701396
 H                 -2.76308144   -2.95723068   -1.59738596
 C                 -4.04067744    2.65422632   -0.43164996
 H                 -3.58713344    3.62219432   -0.25120396
 C                 -7.06580044   -1.34360768   -1.30758296
 H                 -7.48376544   -2.31932768   -1.53687896
 C                  7.89727656   -0.17032768   -1.08596396
 H                  8.97295756   -0.03707868   -1.13791896
 C                 -5.40835044    2.48452732   -0.47215796
 H                 -6.06313544    3.33557232   -0.31308796
 C                  1.19132356    3.07285032    0.61237504
 H                  1.43075056    2.35253132    1.38925504
 C                 -5.98520444    1.20653832   -0.73585396
 C                 -4.75804044   -2.26777068   -1.48246496
 H                 -5.16132144   -3.23842268   -1.75565596
 C                 -1.20495544   -3.49503768    0.61227204
 H                 -1.44447744   -2.77471768    1.38912204
 C                 -0.33428944   -3.98126668   -1.59421096
 H                  0.10494656   -3.63898068   -2.52632896
 C                 -7.38309444    1.00710232   -0.80569496
 H                 -8.04551744    1.85163832   -0.64052696
 C                 -1.46487044   -4.85334768    0.80924704
 H                 -1.90033044   -5.18805568    1.74603204
 C                 -1.16705344   -5.77762768   -0.19748196
 H                 -1.37357744   -6.83295368   -0.04661296
 C                  1.45120356    4.43116132    0.80938404
 H                  1.88654356    4.76587132    1.74622404
 C                  0.32092856    3.55907532   -1.59421596
 H                 -0.11819244    3.21678732   -2.52638696
 C                 -7.91071344   -0.25195768   -1.08592496
 H                 -8.98639244   -0.38522368   -1.13786596
 C                 -0.59829944   -5.33868768   -1.39838196
 H                 -0.36076744   -6.05187768   -2.18204296
 C                  1.15351056    5.35543932   -0.19738296
 H                  1.36000956    6.41076732   -0.04648696
 C                  0.58490756    4.91649632   -1.39835396
 H                  0.34746656    5.62968632   -2.18204196
 O                 14.20901689   -0.84375780    2.99269342
 O                 10.21258244    2.56951584    1.57747584
 C                 15.93808254    0.60199417    2.19884498
 C                 10.85484304    0.31273450    2.22074430
 C                 18.27173737   -0.08128669    2.65409157
 C                 13.23844467   -0.01674983    2.50004473
 C                 15.52160544   -0.54549075    2.89333997
 C                 17.80203787    1.93829271    1.30843441
 C                 13.57466281    1.23786659    1.90466082
 C                  8.90015340    2.26771300    1.66787868
 C                  9.46095041   -0.07616029    2.17299737
 C                  8.49136399    0.94982797    1.92973501
 C                 11.93849882   -0.49905159    2.65607380
 C                 12.48804017    2.11536230    1.63617016
 C                 17.33869569    0.81962042    2.05850295
 C                 11.18776056    1.64044998    1.81097037
 C                 17.77755488   -1.21000249    3.37335212
 H                 18.48518812   -1.89664327    3.82734018
 C                 16.82698544    2.78509728    0.69687628
 H                 17.16876372    3.61325868    0.08305854
 C                 15.47624952    2.57953043    0.85649640
 H                 14.79248159    3.24630189    0.35557669
 C                 16.42384741   -1.44617522    3.48589857
 H                 16.03327803   -2.30928799    4.01288724
 C                 14.97397220    1.50662704    1.64742655
 C                 19.65408111    0.17379159    2.50306329
 H                 20.36879699   -0.50404913    2.96027030
 C                 19.18829031    2.14947089    1.17711783
 H                 19.54365288    2.99943209    0.60215355
 C                 11.76069026   -1.80014491    3.36679821
 C                  6.63962368   -0.65725377    2.13270407
 C                 12.65963798    3.55380674    1.27420335
 C                  8.97027613   -1.40626649    2.31093582
 H                  9.66100402   -2.22721933    2.42037886
 C                  7.99108746    3.31960893    1.45927714
 H                  8.37568978    4.31496824    1.26805507
 C                  5.25560692   -0.91803204    2.13813627
 H                  4.90782454   -1.93604901    2.28642578
 C                 20.10068900    1.27551089    1.77580771
 H                 21.16572991    1.45370867    1.66867393
 C                  6.63872024    3.05373525    1.49645476
 H                  5.92582742    3.85694521    1.33846152
 C                 13.16531788    4.44850394    2.22869530
 H                 13.43963476    4.08110910    3.21332648
 C                  6.15325633    1.73175661    1.72503578
 C                  7.62269360   -1.68180658    2.29294678
 C                 11.21499492   -1.81008682    4.65883686
 H                 10.91494139   -0.87342597    5.11966434
 C                 12.15258980   -3.01015233    2.77633752
 H                 12.58321809   -3.00400174    1.77961620
 C                  4.77322153    1.42547426    1.74610674
 H                  4.05304459    2.22435596    1.59624366
 C                 11.04349516   -3.01613196    5.34250632
 H                 10.61604891   -3.01328233    6.34075608
 C                 11.41916962   -4.22229361    4.74206104
 H                 11.28138573   -5.16042722    5.27125619
 C                 13.33028058    5.79889954    1.91155497
 H                 13.72668583    6.48252154    2.65636683
 C                 12.30082429    4.03167687    0.00564513
 H                 11.90107796    3.34247493   -0.73200970
 C                  4.33587926    0.11837086    1.95191054
 C                 11.97696414   -4.21607255    3.45865275
 H                 12.27466690   -5.14874877    2.98889311
 C                 12.98795948    6.26734245    0.63881453
 H                 13.12073814    7.31603996    0.39035534
 C                 12.46995480    5.38110675   -0.31227386
 H                 12.19820939    5.73952775   -1.30064317
 C                  7.09319454    0.67800589    1.93252594
 H                  7.29485257   -2.69503124    2.39685079
 H                  3.28739804   -0.09489018    1.96224820

 1 6 1.0 7 1.0
 2 10 1.0 16 1.0
 3 7 1.5 15 1.5 26 1.5
 4 11 1.0 13 1.5 16 1.5
 5 15 1.5 17 1.5 27 1.5
 6 9 1.5 13 1.5
 7 23 1.5
 8 15 1.5 19 1.5 29 1.5
 9 14 1.5 26 1.0
 10 12 1.5 36 1.5
 11 12 1.5 34 1.5
 12 25 1.5
 13 31 1.0
 14 16 1.5 33 1.0
 15
 16
 17 18 1.0 23 2.0
 18
 19 20 1.0 21 2.0
 20
 21 22 1.0 26 1.5
 22
 23 24 1.0
 24
 25 32 1.5 46 1.5
 26
 27 28 1.0 40 1.5
 28
 29 30 1.0 40 1.5
 30
 31 49 1.5 51 1.5
 32 38 1.5 47 1.5
 33 44 1.5 61 1.5
 34 35 1.0 47 2.0
 35
 36 37 1.0 42 2.0
 37
 38 39 1.0 63 1.5
 39
 40 41 1.0
 41
 42 43 1.0 46 1.5
 43
 44 45 1.0 59 1.5
 45
 46 53 1.5
 47 48 1.0
 48
 49 50 1.0 55 1.5
 50
 51 52 1.0 65 1.5
 52
 53 54 1.0 63 1.5
 54
 55 56 1.0 57 1.5
 56
 57 58 1.0 65 1.5
 58
 59 60 1.0 67 1.5
 60
 61 62 1.0 69 1.5
 62
 63 64 1.0
 64
 65 66 1.0
 66
 67 68 1.0 69 1.5
 68
 69 70 1.0
 70
 71 76 1.0 77 1.0
 72 80 1.0 86 1.0
 73 77 1.5 85 1.5 95 1.5
 74 81 1.0 83 1.5 86 1.5
 75 85 1.5 87 1.5 96 1.5
 76 79 1.5 83 1.5
 77 93 1.5
 78 85 1.5 89 1.5 98 1.5
 79 84 1.5 95 1.0
 80 82 1.5 105 1.5
 81 82 1.5 103 1.5
 82 140 1.5
 83 100 1.0
 84 86 1.5 102 1.0
 85
 86
 87 88 1.0 93 2.0
 88
 89 90 1.0 91 2.0
 90
 91 92 1.0 95 1.5
 92
 93 94 1.0
 94
 95
 96 97 1.0 109 1.5
 97
 98 99 1.0 109 1.5
 99
 100 118 1.5 120 1.5
 101 107 1.5 116 1.5 140 1.5
 102 113 1.5 130 1.5
 103 104 1.0 116 2.0
 104
 105 106 1.0 111 2.0
 106
 107 108 1.0 132 1.5
 108
 109 110 1.0
 110
 111 112 1.0 115 1.5
 112
 113 114 1.0 128 1.5
 114
 115 122 1.5 140 1.5
 116 117 1.0
 117
 118 119 1.0 124 1.5
 119
 120 121 1.0 134 1.5
 121
 122 123 1.0 132 1.5
 123
 124 125 1.0 126 1.5
 125
 126 127 1.0 134 1.5
 127
 128 129 1.0 136 1.5
 129
 130 131 1.0 138 1.5
 131
 132 133 1.0
 133
 134 135 1.0
 135
 136 137 1.0 138 1.5
 137
 138 139 1.0
 139
 140



























