%chk=/oasis/projects/nsf/lhu120/cmw414/pent_y_stack/1_6A/dimer/dimer.chk
%nprocshared=24
%mem=110GB
#p b3lyp/6-311g(d,p) nosymm pop=full iop(3/33=1) punch=mo

c47

0 1
 C                 -8.06391661   -8.03243243    3.49931594
 C                 -8.03591661   -7.17643243    2.44331594
 C                 -7.41491661   -7.49443243    1.20831594
 C                 -7.39991661   -6.59543243    0.12331594
 C                 -6.74491661   -6.92843243   -1.09468406
 C                 -6.69591661   -6.06443243   -2.17668406
 C                 -6.14791661   -8.27243243   -1.22868406
 C                 -6.26291661   -9.11643243   -0.17068406
 C                 -6.78391661   -8.81243243    1.07431594
 C                 -6.90991661   -9.68143243    2.16531594
 C                 -7.42191661   -9.36443243    3.37031594
 H                 -8.55391661   -7.71343243    4.56631594
 H                 -8.44491661   -6.15243243    2.53631594
 H                 -7.83391661   -5.58243243    0.25931594
 H                 -7.16291661   -5.04643243   -2.03168406
 H                 -5.80491661  -10.12743243   -0.26268406
 H                 -6.45291661  -10.68743243    2.08631594
 H                 -7.43291661  -10.04343243    4.24731594
 C                 -6.09591661   -6.38343243   -3.41468406
 C                 -5.54791661   -8.59143243   -2.46668406
 C                 -5.49791661   -7.72843243   -3.54868406
 C                 -5.98091661   -5.54043243   -4.47268406
 H                 -5.07991661   -9.61043243   -2.61168406
 C                 -4.84391661   -8.06143243   -4.76668406
 C                 -5.45891661   -5.84443243   -5.71768406
 H                 -6.43891661   -4.52943243   -4.38068406
 C                 -4.82891661   -7.16243243   -5.85168406
 H                 -4.40991661   -9.07343243   -4.90268406
 C                 -5.33391661   -4.97543243   -6.80868406
 C                 -4.20791661   -7.47943243   -7.08668406
 C                 -4.82191661   -5.29243243   -8.01368406
 H                 -5.79091661   -3.96943243   -6.72968406
 C                 -4.17991661   -6.62443243   -8.14268406
 H                 -3.79891661   -8.50443243   -7.17968406
 H                 -4.80991661   -4.61343243   -8.89068406
 H                 -3.68991661   -6.94343243   -9.20968406
 C                 -5.55955519   -5.28557798    4.80563065
 C                 -5.53155519   -4.42957798    3.74963065
 C                 -4.91055519   -4.74757798    2.51463065
 C                 -4.89555519   -3.84857798    1.42963065
 C                 -4.24055519   -4.18157798    0.21163065
 C                 -4.19155519   -3.31757798   -0.87036935
 C                 -3.64355519   -5.52557798    0.07763065
 C                 -3.75855519   -6.36957798    1.13563065
 C                 -4.27955519   -6.06557798    2.38063065
 C                 -4.40555519   -6.93457798    3.47163065
 C                 -4.91755519   -6.61757798    4.67663065
 H                 -6.04955519   -4.96657798    5.87263065
 H                 -5.94055519   -3.40557798    3.84263065
 H                 -5.32955519   -2.83557798    1.56563065
 H                 -4.65855519   -2.29957798   -0.72536935
 H                 -3.30055519   -7.38057798    1.04363065
 H                 -3.94855519   -7.94057798    3.39263065
 H                 -4.92855519   -7.29657798    5.55363065
 C                 -3.59155519   -3.63657798   -2.10836935
 C                 -3.04355519   -5.84457798   -1.16036935
 C                 -2.99355519   -4.98157798   -2.24236935
 C                 -3.47655519   -2.79357798   -3.16636935
 H                 -2.57555519   -6.86357798   -1.30536935
 C                 -2.33955519   -5.31457798   -3.46036935
 C                 -2.95455519   -3.09757798   -4.41136935
 H                 -3.93455519   -1.78257798   -3.07436935
 C                 -2.32455519   -4.41557798   -4.54536935
 H                 -1.90555519   -6.32657798   -3.59636935
 C                 -2.82955519   -2.22857798   -5.50236935
 C                 -1.70355519   -4.73257798   -5.78036935
 C                 -2.31755519   -2.54557798   -6.70736935
 H                 -3.28655519   -1.22257798   -5.42336935
 C                 -1.67555519   -3.87757798   -6.83636935
 H                 -1.29455519   -5.75757798   -5.87336935
 H                 -2.30555519   -1.86657798   -7.58436935
 H                 -1.18555519   -4.19657798   -7.90336935

 1 2 2.0 11 1.0 12 1.0
 2 3 1.5 13 1.0
 3 4 1.5 9 1.0
 4 5 1.5 14 1.0
 5 6 2.0 7 1.0
 6 15 1.0 19 1.5
 7 8 2.0 20 1.5
 8 9 2.0 16 1.0
 9 10 1.5
 10 11 2.0 17 1.0
 11 18 1.0
 12
 13
 14
 15
 16
 17
 18
 19 21 1.0 22 2.0
 20 21 2.0 23 1.0
 21 24 1.5
 22 25 2.0 26 1.0
 23
 24 27 1.5 28 1.0
 25 27 1.0 29 1.5
 26
 27 30 1.5
 28
 29 31 2.0 32 1.0
 30 33 2.0 34 1.0
 31 33 1.0 35 1.0
 32
 33 36 1.0
 34
 35
 36
 37 38 2.0 47 1.0 48 1.0
 38 39 1.5 49 1.0
 39 40 1.5 45 1.0
 40 41 1.5 50 1.0
 41 42 2.0 43 1.0
 42 51 1.0 55 1.5
 43 44 2.0 56 1.5
 44 45 2.0 52 1.0
 45 46 1.5
 46 47 2.0 53 1.0
 47 54 1.0
 48
 49
 50
 51
 52
 53
 54
 55 57 1.0 58 2.0
 56 57 2.0 59 1.0
 57 60 1.5
 58 61 2.0 62 1.0
 59
 60 63 1.5 64 1.0
 61 63 1.0 65 1.5
 62
 63 66 1.5
 64
 65 67 2.0 68 1.0
 66 69 2.0 70 1.0
 67 69 1.0 71 1.0
 68
 69 72 1.0
 70
 71
 72


