%chk=/oasis/projects/nsf/lhu120/cmw414/rc_slip_y_90/2_2A/dimer/dimer.chk
%mem=110GB
#p b3lyp/6-311g(d,p) nosymm pop=full iop(3/33=1) punch=mo

c47

2 1
 O                  1.86343256   -2.18814168   -0.63312396
 O                 -1.87688744    1.76594132   -0.63317696
 C                  3.69461456   -0.67140268   -0.87047896
 C                 -1.39648944   -0.60712468   -0.87219696
 C                  5.97175156   -1.62878468   -0.73581696
 C                  0.95630456   -1.17504168   -0.77241696
 C                  3.19421256   -1.96292068   -0.63793396
 C                  5.65376956    0.77013232   -1.23999596
 C                  1.38305156    0.18492932   -0.87218096
 C                 -3.20766744    1.54071032   -0.63799196
 C                 -2.81321944   -0.85705968   -1.03609996
 C                 -3.70805744    0.24918032   -0.87049696
 C                 -0.37497644   -1.59266368   -0.78251796
 C                  0.36153156    1.17047132   -0.78252296
 C                  5.10807156   -0.51188368   -0.94441996
 C                 -0.96975044    0.75284632   -0.77244796
 C                  5.39488456   -2.90675768   -0.47207296
 H                  6.04966056   -3.75780568   -0.31297796
 C                  4.74462556    1.84550032   -1.48258496
 H                  5.14791656    2.81613132   -1.75583896
 C                  3.38157356    1.68676032   -1.38711396
 H                  2.74968056    2.53497832   -1.59754396
 C                  4.02720956   -3.07643968   -0.43155996
 H                  3.57365556   -4.04439768   -0.25108496
 C                 -5.12151244    0.08963932   -0.94441896
 C                  2.79978656    0.43484332   -1.03611196
 C                  7.36964356   -1.42936968   -0.80567596
 H                  8.03205756   -2.27390668   -0.64047896
 C                  7.05237556    0.92132132   -1.30766596
 H                  7.47035056    1.89702532   -1.53701096
 C                 -0.64793744   -3.04866968   -0.59509396
 C                 -5.66719544   -1.19239768   -1.23993096
 C                  0.63446856    2.62647732   -0.59506596
 C                 -3.39498944   -2.10900768   -1.38701396
 H                 -2.76308144   -2.95723068   -1.59738596
 C                 -4.04067744    2.65422632   -0.43164996
 H                 -3.58713344    3.62219432   -0.25120396
 C                 -7.06580044   -1.34360768   -1.30758296
 H                 -7.48376544   -2.31932768   -1.53687896
 C                  7.89727656   -0.17032768   -1.08596396
 H                  8.97295756   -0.03707868   -1.13791896
 C                 -5.40835044    2.48452732   -0.47215796
 H                 -6.06313544    3.33557232   -0.31308796
 C                  1.19132356    3.07285032    0.61237504
 H                  1.43075056    2.35253132    1.38925504
 C                 -5.98520444    1.20653832   -0.73585396
 C                 -4.75804044   -2.26777068   -1.48246496
 H                 -5.16132144   -3.23842268   -1.75565596
 C                 -1.20495544   -3.49503768    0.61227204
 H                 -1.44447744   -2.77471768    1.38912204
 C                 -0.33428944   -3.98126668   -1.59421096
 H                  0.10494656   -3.63898068   -2.52632896
 C                 -7.38309444    1.00710232   -0.80569496
 H                 -8.04551744    1.85163832   -0.64052696
 C                 -1.46487044   -4.85334768    0.80924704
 H                 -1.90033044   -5.18805568    1.74603204
 C                 -1.16705344   -5.77762768   -0.19748196
 H                 -1.37357744   -6.83295368   -0.04661296
 C                  1.45120356    4.43116132    0.80938404
 H                  1.88654356    4.76587132    1.74622404
 C                  0.32092856    3.55907532   -1.59421596
 H                 -0.11819244    3.21678732   -2.52638696
 C                 -7.91071344   -0.25195768   -1.08592496
 H                 -8.98639244   -0.38522368   -1.13786596
 C                 -0.59829944   -5.33868768   -1.39838196
 H                 -0.36076744   -6.05187768   -2.18204296
 C                  1.15351056    5.35543932   -0.19738296
 H                  1.36000956    6.41076732   -0.04648696
 C                  0.58490756    4.91649632   -1.39835396
 H                  0.34746656    5.62968632   -2.18204196
 O                 13.18982577   -3.21269144    3.27648173
 O                  9.19339132    0.20058220    1.86126415
 C                 14.91889142   -1.76693947    2.48263329
 C                  9.83565192   -2.05619914    2.50453261
 C                 17.25254625   -2.45022033    2.93787988
 C                 12.21925355   -2.38568347    2.78383304
 C                 14.50241432   -2.91442439    3.17712828
 C                 16.78284675   -0.43064093    1.59222272
 C                 12.55547169   -1.13106705    2.18844913
 C                  7.88096228   -0.10122064    1.95166699
 C                  8.44175929   -2.44509393    2.45678568
 C                  7.47217287   -1.41910567    2.21352332
 C                 10.91930770   -2.86798523    2.93986211
 C                 11.46884905   -0.25357134    1.91995847
 C                 16.31950457   -1.54931322    2.34229126
 C                 10.16856944   -0.72848366    2.09475868
 C                 16.75836376   -3.57893613    3.65714043
 H                 17.46599700   -4.26557691    4.11112849
 C                 15.80779432    0.41616364    0.98066459
 H                 16.14957260    1.24432504    0.36684685
 C                 14.45705840    0.21059679    1.14028471
 H                 13.77329047    0.87736825    0.63936500
 C                 15.40465629   -3.81510886    3.76968688
 H                 15.01408691   -4.67822163    4.29667555
 C                 13.95478108   -0.86230660    1.93121486
 C                 18.63488999   -2.19514205    2.78685160
 H                 19.34960587   -2.87298277    3.24405861
 C                 18.16909919   -0.21946275    1.46090614
 H                 18.52446176    0.63049845    0.88594186
 C                 10.74149914   -4.16907855    3.65058652
 C                  5.62043256   -3.02618741    2.41649238
 C                 11.64044686    1.18487310    1.55799166
 C                  7.95108501   -3.77520013    2.59472413
 H                  8.64181290   -4.59615297    2.70416717
 C                  6.97189634    0.95067529    1.74306545
 H                  7.35649866    1.94603460    1.55184338
 C                  4.23641580   -3.28696568    2.42192458
 H                  3.88863342   -4.30498265    2.57021409
 C                 19.08149788   -1.09342275    2.05959602
 H                 20.14653879   -0.91522497    1.95246224
 C                  5.61952912    0.68480161    1.78024307
 H                  4.90663630    1.48801157    1.62224983
 C                 12.14612676    2.07957030    2.51248361
 H                 12.42044364    1.71217546    3.49711479
 C                  5.13406521   -0.63717703    2.00882409
 C                  6.60350248   -4.05074022    2.57673509
 C                 10.19580380   -4.17902046    4.94262517
 H                  9.89575027   -3.24235961    5.40345265
 C                 11.13339868   -5.37908597    3.06012583
 H                 11.56402697   -5.37293538    2.06340451
 C                  3.75403041   -0.94345938    2.02989505
 H                  3.03385347   -0.14457768    1.88003197
 C                 10.02430404   -5.38506560    5.62629463
 H                  9.59685779   -5.38221597    6.62454439
 C                 10.39997850   -6.59122725    5.02584935
 H                 10.26219461   -7.52936086    5.55504450
 C                 12.31108946    3.42996590    2.19534328
 H                 12.70749471    4.11358790    2.94015514
 C                 11.28163317    1.66274323    0.28943344
 H                 10.88188684    0.97354129   -0.44822139
 C                  3.31668814   -2.25056278    2.23569885
 C                 10.95777302   -6.58500619    3.74244106
 H                 11.25547578   -7.51768241    3.27268142
 C                 11.96876836    3.89840881    0.92260284
 H                 12.10154702    4.94710632    0.67414365
 C                 11.45076368    3.01217311   -0.02848555
 H                 11.17901827    3.37059411   -1.01685486
 C                  6.07400342   -1.69092775    2.21631425
 H                  6.27566145   -5.06396488    2.68063910
 H                  2.26820692   -2.46382382    2.24603651

 1 6 1.0 7 1.0
 2 10 1.0 16 1.0
 3 7 1.5 15 1.5 26 1.5
 4 11 1.0 13 1.5 16 1.5
 5 15 1.5 17 1.5 27 1.5
 6 9 1.5 13 1.5
 7 23 1.5
 8 15 1.5 19 1.5 29 1.5
 9 14 1.5 26 1.0
 10 12 1.5 36 1.5
 11 12 1.5 34 1.5
 12 25 1.5
 13 31 1.0
 14 16 1.5 33 1.0
 15
 16
 17 18 1.0 23 2.0
 18
 19 20 1.0 21 2.0
 20
 21 22 1.0 26 1.5
 22
 23 24 1.0
 24
 25 32 1.5 46 1.5
 26
 27 28 1.0 40 1.5
 28
 29 30 1.0 40 1.5
 30
 31 49 1.5 51 1.5
 32 38 1.5 47 1.5
 33 44 1.5 61 1.5
 34 35 1.0 47 2.0
 35
 36 37 1.0 42 2.0
 37
 38 39 1.0 63 1.5
 39
 40 41 1.0
 41
 42 43 1.0 46 1.5
 43
 44 45 1.0 59 1.5
 45
 46 53 1.5
 47 48 1.0
 48
 49 50 1.0 55 1.5
 50
 51 52 1.0 65 1.5
 52
 53 54 1.0 63 1.5
 54
 55 56 1.0 57 1.5
 56
 57 58 1.0 65 1.5
 58
 59 60 1.0 67 1.5
 60
 61 62 1.0 69 1.5
 62
 63 64 1.0
 64
 65 66 1.0
 66
 67 68 1.0 69 1.5
 68
 69 70 1.0
 70
 71 76 1.0 77 1.0
 72 80 1.0 86 1.0
 73 77 1.5 85 1.5 95 1.5
 74 81 1.0 83 1.5 86 1.5
 75 85 1.5 87 1.5 96 1.5
 76 79 1.5 83 1.5
 77 93 1.5
 78 85 1.5 89 1.5 98 1.5
 79 84 1.5 95 1.0
 80 82 1.5 105 1.5
 81 82 1.5 103 1.5
 82 140 1.5
 83 100 1.0
 84 86 1.5 102 1.0
 85
 86
 87 88 1.0 93 2.0
 88
 89 90 1.0 91 2.0
 90
 91 92 1.0 95 1.5
 92
 93 94 1.0
 94
 95
 96 97 1.0 109 1.5
 97
 98 99 1.0 109 1.5
 99
 100 118 1.5 120 1.5
 101 107 1.5 116 1.5 140 1.5
 102 113 1.5 130 1.5
 103 104 1.0 116 2.0
 104
 105 106 1.0 111 2.0
 106
 107 108 1.0 132 1.5
 108
 109 110 1.0
 110
 111 112 1.0 115 1.5
 112
 113 114 1.0 128 1.5
 114
 115 122 1.5 140 1.5
 116 117 1.0
 117
 118 119 1.0 124 1.5
 119
 120 121 1.0 134 1.5
 121
 122 123 1.0 132 1.5
 123
 124 125 1.0 126 1.5
 125
 126 127 1.0 134 1.5
 127
 128 129 1.0 136 1.5
 129
 130 131 1.0 138 1.5
 131
 132 133 1.0
 133
 134 135 1.0
 135
 136 137 1.0 138 1.5
 137
 138 139 1.0
 139
 140





























