%chk=/oasis/projects/nsf/lhu120/cmw414/rc_slip_y_90/1_2A/dimer/dimer.chk
%nprocshared=24
%mem=110GB
#p b3lyp/6-311g(d,p) nosymm pop=full iop(3/33=1) punch=mo

c47

2 1
 O                  1.86343256   -2.18814168   -0.63312396
 O                 -1.87688744    1.76594132   -0.63317696
 C                  3.69461456   -0.67140268   -0.87047896
 C                 -1.39648944   -0.60712468   -0.87219696
 C                  5.97175156   -1.62878468   -0.73581696
 C                  0.95630456   -1.17504168   -0.77241696
 C                  3.19421256   -1.96292068   -0.63793396
 C                  5.65376956    0.77013232   -1.23999596
 C                  1.38305156    0.18492932   -0.87218096
 C                 -3.20766744    1.54071032   -0.63799196
 C                 -2.81321944   -0.85705968   -1.03609996
 C                 -3.70805744    0.24918032   -0.87049696
 C                 -0.37497644   -1.59266368   -0.78251796
 C                  0.36153156    1.17047132   -0.78252296
 C                  5.10807156   -0.51188368   -0.94441996
 C                 -0.96975044    0.75284632   -0.77244796
 C                  5.39488456   -2.90675768   -0.47207296
 H                  6.04966056   -3.75780568   -0.31297796
 C                  4.74462556    1.84550032   -1.48258496
 H                  5.14791656    2.81613132   -1.75583896
 C                  3.38157356    1.68676032   -1.38711396
 H                  2.74968056    2.53497832   -1.59754396
 C                  4.02720956   -3.07643968   -0.43155996
 H                  3.57365556   -4.04439768   -0.25108496
 C                 -5.12151244    0.08963932   -0.94441896
 C                  2.79978656    0.43484332   -1.03611196
 C                  7.36964356   -1.42936968   -0.80567596
 H                  8.03205756   -2.27390668   -0.64047896
 C                  7.05237556    0.92132132   -1.30766596
 H                  7.47035056    1.89702532   -1.53701096
 C                 -0.64793744   -3.04866968   -0.59509396
 C                 -5.66719544   -1.19239768   -1.23993096
 C                  0.63446856    2.62647732   -0.59506596
 C                 -3.39498944   -2.10900768   -1.38701396
 H                 -2.76308144   -2.95723068   -1.59738596
 C                 -4.04067744    2.65422632   -0.43164996
 H                 -3.58713344    3.62219432   -0.25120396
 C                 -7.06580044   -1.34360768   -1.30758296
 H                 -7.48376544   -2.31932768   -1.53687896
 C                  7.89727656   -0.17032768   -1.08596396
 H                  8.97295756   -0.03707868   -1.13791896
 C                 -5.40835044    2.48452732   -0.47215796
 H                 -6.06313544    3.33557232   -0.31308796
 C                  1.19132356    3.07285032    0.61237504
 H                  1.43075056    2.35253132    1.38925504
 C                 -5.98520444    1.20653832   -0.73585396
 C                 -4.75804044   -2.26777068   -1.48246496
 H                 -5.16132144   -3.23842268   -1.75565596
 C                 -1.20495544   -3.49503768    0.61227204
 H                 -1.44447744   -2.77471768    1.38912204
 C                 -0.33428944   -3.98126668   -1.59421096
 H                  0.10494656   -3.63898068   -2.52632896
 C                 -7.38309444    1.00710232   -0.80569496
 H                 -8.04551744    1.85163832   -0.64052696
 C                 -1.46487044   -4.85334768    0.80924704
 H                 -1.90033044   -5.18805568    1.74603204
 C                 -1.16705344   -5.77762768   -0.19748196
 H                 -1.37357744   -6.83295368   -0.04661296
 C                  1.45120356    4.43116132    0.80938404
 H                  1.88654356    4.76587132    1.74622404
 C                  0.32092856    3.55907532   -1.59421596
 H                 -0.11819244    3.21678732   -2.52638696
 C                 -7.91071344   -0.25195768   -1.08592496
 H                 -8.98639244   -0.38522368   -1.13786596
 C                 -0.59829944   -5.33868768   -1.39838196
 H                 -0.36076744   -6.05187768   -2.18204296
 C                  1.15351056    5.35543932   -0.19738296
 H                  1.36000956    6.41076732   -0.04648696
 C                  0.58490756    4.91649632   -1.39835396
 H                  0.34746656    5.62968632   -2.18204196
 O                 12.76223819   -2.31691288    3.15503373
 O                  8.76580374    1.09636076    1.73981615
 C                 14.49130384   -0.87116091    2.36118529
 C                  9.40806434   -1.16042058    2.38308461
 C                 16.82495867   -1.55444177    2.81643188
 C                 11.79166597   -1.48990491    2.66238504
 C                 14.07482674   -2.01864583    3.05568028
 C                 16.35525917    0.46513763    1.47077472
 C                 12.12788411   -0.23528849    2.06700113
 C                  7.45337470    0.79455792    1.83021899
 C                  8.01417171   -1.54931537    2.33533768
 C                  7.04458529   -0.52332711    2.09207532
 C                 10.49172012   -1.97220667    2.81841411
 C                 11.04126147    0.64220722    1.79851047
 C                 15.89191699   -0.65353466    2.22084326
 C                  9.74098186    0.16729490    1.97331068
 C                 16.33077618   -2.68315757    3.53569243
 H                 17.03840942   -3.36979835    3.98968049
 C                 15.38020674    1.31194220    0.85921659
 H                 15.72198502    2.14010360    0.24539885
 C                 14.02947082    1.10637535    1.01883671
 H                 13.34570289    1.77314681    0.51791700
 C                 14.97706871   -2.91933030    3.64823888
 H                 14.58649933   -3.78244307    4.17522755
 C                 13.52719350    0.03347196    1.80976686
 C                 18.20730241   -1.29936349    2.66540360
 H                 18.92201829   -1.97720421    3.12261061
 C                 17.74151161    0.67631581    1.33945814
 H                 18.09687418    1.52627701    0.76449386
 C                 10.31391156   -3.27329999    3.52913852
 C                  5.19284498   -2.13040885    2.29504438
 C                 11.21285928    2.08065166    1.43654366
 C                  7.52349743   -2.87942157    2.47327613
 H                  8.21422532   -3.70037441    2.58271917
 C                  6.54430876    1.84645385    1.62161745
 H                  6.92891108    2.84181316    1.43039538
 C                  3.80882822   -2.39118712    2.30047658
 H                  3.46104584   -3.40920409    2.44876609
 C                 18.65391030   -0.19764419    1.93814802
 H                 19.71895121   -0.01944641    1.83101424
 C                  5.19194154    1.58058017    1.65879507
 H                  4.47904872    2.38379013    1.50080183
 C                 11.71853918    2.97534886    2.39103561
 H                 11.99285606    2.60795402    3.37566679
 C                  4.70647763    0.25860153    1.88737609
 C                  6.17591490   -3.15496166    2.45528709
 C                  9.76821622   -3.28324190    4.82117717
 H                  9.46816269   -2.34658105    5.28200465
 C                 10.70581110   -4.48330741    2.93867783
 H                 11.13643939   -4.47715682    1.94195651
 C                  3.32644283   -0.04768082    1.90844705
 H                  2.60626589    0.75120088    1.75858397
 C                  9.59671646   -4.48928704    5.50484663
 H                  9.16927021   -4.48643741    6.50309639
 C                  9.97239092   -5.69544869    4.90440135
 H                  9.83460703   -6.63358230    5.43359650
 C                 11.88350188    4.32574446    2.07389528
 H                 12.27990713    5.00936646    2.81870714
 C                 10.85404559    2.55852179    0.16798544
 H                 10.45429926    1.86931985   -0.56966939
 C                  2.88910056   -1.35478422    2.11425085
 C                 10.53018544   -5.68922763    3.62099306
 H                 10.82788820   -6.62190385    3.15123342
 C                 11.54118078    4.79418737    0.80115484
 H                 11.67395944    5.84288488    0.55269565
 C                 11.02317610    3.90795167   -0.14993355
 H                 10.75143069    4.26637267   -1.13830286
 C                  5.64641584   -0.79514919    2.09486625
 H                  5.84807387   -4.16818632    2.55919110
 H                  1.84061934   -1.56804526    2.12458851

 1 6 1.0 7 1.0
 2 10 1.0 16 1.0
 3 7 1.5 15 1.5 26 1.5
 4 11 1.0 13 1.5 16 1.5
 5 15 1.5 17 1.5 27 1.5
 6 9 1.5 13 1.5
 7 23 1.5
 8 15 1.5 19 1.5 29 1.5
 9 14 1.5 26 1.0
 10 12 1.5 36 1.5
 11 12 1.5 34 1.5
 12 25 1.5
 13 31 1.0
 14 16 1.5 33 1.0
 15
 16
 17 18 1.0 23 2.0
 18
 19 20 1.0 21 2.0
 20
 21 22 1.0 26 1.5
 22
 23 24 1.0
 24
 25 32 1.5 46 1.5
 26
 27 28 1.0 40 1.5
 28
 29 30 1.0 40 1.5
 30
 31 49 1.5 51 1.5
 32 38 1.5 47 1.5
 33 44 1.5 61 1.5
 34 35 1.0 47 2.0
 35
 36 37 1.0 42 2.0
 37
 38 39 1.0 63 1.5
 39
 40 41 1.0
 41
 42 43 1.0 46 1.5
 43
 44 45 1.0 59 1.5
 45
 46 53 1.5
 47 48 1.0
 48
 49 50 1.0 55 1.5
 50
 51 52 1.0 65 1.5
 52
 53 54 1.0 63 1.5
 54
 55 56 1.0 57 1.5
 56
 57 58 1.0 65 1.5
 58
 59 60 1.0 67 1.5
 60
 61 62 1.0 69 1.5
 62
 63 64 1.0
 64
 65 66 1.0
 66
 67 68 1.0 69 1.5
 68
 69 70 1.0
 70
 71 76 1.0 77 1.0
 72 80 1.0 86 1.0
 73 77 1.5 85 1.5 95 1.5
 74 81 1.0 83 1.5 86 1.5
 75 85 1.5 87 1.5 96 1.5
 76 79 1.5 83 1.5
 77 93 1.5
 78 85 1.5 89 1.5 98 1.5
 79 84 1.5 95 1.0
 80 82 1.5 105 1.5
 81 82 1.5 103 1.5
 82 140 1.5
 83 100 1.0
 84 86 1.5 102 1.0
 85
 86
 87 88 1.0 93 2.0
 88
 89 90 1.0 91 2.0
 90
 91 92 1.0 95 1.5
 92
 93 94 1.0
 94
 95
 96 97 1.0 109 1.5
 97
 98 99 1.0 109 1.5
 99
 100 118 1.5 120 1.5
 101 107 1.5 116 1.5 140 1.5
 102 113 1.5 130 1.5
 103 104 1.0 116 2.0
 104
 105 106 1.0 111 2.0
 106
 107 108 1.0 132 1.5
 108
 109 110 1.0
 110
 111 112 1.0 115 1.5
 112
 113 114 1.0 128 1.5
 114
 115 122 1.5 140 1.5
 116 117 1.0
 117
 118 119 1.0 124 1.5
 119
 120 121 1.0 134 1.5
 121
 122 123 1.0 132 1.5
 123
 124 125 1.0 126 1.5
 125
 126 127 1.0 134 1.5
 127
 128 129 1.0 136 1.5
 129
 130 131 1.0 138 1.5
 131
 132 133 1.0
 133
 134 135 1.0
 135
 136 137 1.0 138 1.5
 137
 138 139 1.0
 139
 140



















