%chk=/oasis/projects/nsf/lhu120/cmw414/pent_slip_x/n_0_8A/dimer/dimer.chk
%nprocshared=24
%mem=110GB
#p b3lyp/6-311g(d,p) nosymm pop=full iop(3/33=1) punch=mo

c47

0 1
 C                 -8.92580337   -6.75245825    4.39466605
 C                 -8.89780337   -5.89645825    3.33866605
 C                 -8.27680337   -6.21445825    2.10366605
 C                 -8.26180337   -5.31545825    1.01866605
 C                 -7.60680337   -5.64845825   -0.19933395
 C                 -7.55780337   -4.78445825   -1.28133395
 C                 -7.00980337   -6.99245825   -0.33333395
 C                 -7.12480337   -7.83645825    0.72466605
 C                 -7.64580337   -7.53245825    1.96966605
 C                 -7.77180337   -8.40145825    3.06066605
 C                 -8.28380337   -8.08445825    4.26566605
 H                 -9.41580337   -6.43345825    5.46166605
 H                 -9.30680337   -4.87245825    3.43166605
 H                 -8.69580337   -4.30245825    1.15466605
 H                 -8.02480337   -3.76645825   -1.13633395
 H                 -6.66680337   -8.84745825    0.63266605
 H                 -7.31480337   -9.40745825    2.98166605
 H                 -8.29480337   -8.76345825    5.14266605
 C                 -6.95780337   -5.10345825   -2.51933395
 C                 -6.40980337   -7.31145825   -1.57133395
 C                 -6.35980337   -6.44845825   -2.65333395
 C                 -6.84280337   -4.26045825   -3.57733395
 H                 -5.94180337   -8.33045825   -1.71633395
 C                 -5.70580337   -6.78145825   -3.87133395
 C                 -6.32080337   -4.56445825   -4.82233395
 H                 -7.30080337   -3.24945825   -3.48533395
 C                 -5.69080337   -5.88245825   -4.95633395
 H                 -5.27180337   -7.79345825   -4.00733395
 C                 -6.19580337   -3.69545825   -5.91333395
 C                 -5.06980337   -6.19945825   -6.19133395
 C                 -5.68380337   -4.01245825   -7.11833395
 H                 -6.65280337   -2.68945825   -5.83433395
 C                 -5.04180337   -5.34445825   -7.24733395
 H                 -4.66080337   -7.22445825   -6.28433395
 H                 -5.67180337   -3.33345825   -7.99533395
 H                 -4.55180337   -5.66345825   -8.31433395
 C                 -5.55955519   -5.28557798    4.80563065
 C                 -5.53155519   -4.42957798    3.74963065
 C                 -4.91055519   -4.74757798    2.51463065
 C                 -4.89555519   -3.84857798    1.42963065
 C                 -4.24055519   -4.18157798    0.21163065
 C                 -4.19155519   -3.31757798   -0.87036935
 C                 -3.64355519   -5.52557798    0.07763065
 C                 -3.75855519   -6.36957798    1.13563065
 C                 -4.27955519   -6.06557798    2.38063065
 C                 -4.40555519   -6.93457798    3.47163065
 C                 -4.91755519   -6.61757798    4.67663065
 H                 -6.04955519   -4.96657798    5.87263065
 H                 -5.94055519   -3.40557798    3.84263065
 H                 -5.32955519   -2.83557798    1.56563065
 H                 -4.65855519   -2.29957798   -0.72536935
 H                 -3.30055519   -7.38057798    1.04363065
 H                 -3.94855519   -7.94057798    3.39263065
 H                 -4.92855519   -7.29657798    5.55363065
 C                 -3.59155519   -3.63657798   -2.10836935
 C                 -3.04355519   -5.84457798   -1.16036935
 C                 -2.99355519   -4.98157798   -2.24236935
 C                 -3.47655519   -2.79357798   -3.16636935
 H                 -2.57555519   -6.86357798   -1.30536935
 C                 -2.33955519   -5.31457798   -3.46036935
 C                 -2.95455519   -3.09757798   -4.41136935
 H                 -3.93455519   -1.78257798   -3.07436935
 C                 -2.32455519   -4.41557798   -4.54536935
 H                 -1.90555519   -6.32657798   -3.59636935
 C                 -2.82955519   -2.22857798   -5.50236935
 C                 -1.70355519   -4.73257798   -5.78036935
 C                 -2.31755519   -2.54557798   -6.70736935
 H                 -3.28655519   -1.22257798   -5.42336935
 C                 -1.67555519   -3.87757798   -6.83636935
 H                 -1.29455519   -5.75757798   -5.87336935
 H                 -2.30555519   -1.86657798   -7.58436935
 H                 -1.18555519   -4.19657798   -7.90336935

 1 2 2.0 11 1.0 12 1.0
 2 3 1.5 13 1.0
 3 4 1.5 9 1.0
 4 5 1.5 14 1.0
 5 6 2.0 7 1.0
 6 15 1.0 19 1.5
 7 8 2.0 20 1.5
 8 9 2.0 16 1.0
 9 10 1.5
 10 11 2.0 17 1.0
 11 18 1.0
 12
 13
 14
 15
 16
 17
 18
 19 21 1.0 22 2.0
 20 21 2.0 23 1.0
 21 24 1.5
 22 25 2.0 26 1.0
 23
 24 27 1.5 28 1.0
 25 27 1.0 29 1.5
 26
 27 30 1.5
 28
 29 31 2.0 32 1.0
 30 33 2.0 34 1.0
 31 33 1.0 35 1.0
 32
 33 36 1.0
 34
 35
 36
 37 38 2.0 47 1.0 48 1.0
 38 39 1.5 49 1.0
 39 40 1.5 45 1.0
 40 41 1.5 50 1.0
 41 42 2.0 43 1.0
 42 51 1.0 55 1.5
 43 44 2.0 56 1.5
 44 45 2.0 52 1.0
 45 46 1.5
 46 47 2.0 53 1.0
 47 54 1.0
 48
 49
 50
 51
 52
 53
 54
 55 57 1.0 58 2.0
 56 57 2.0 59 1.0
 57 60 1.5
 58 61 2.0 62 1.0
 59
 60 63 1.5 64 1.0
 61 63 1.0 65 1.5
 62
 63 66 1.5
 64
 65 67 2.0 68 1.0
 66 69 2.0 70 1.0
 67 69 1.0 71 1.0
 68
 69 72 1.0
 70
 71
 72

