%chk=/oasis/projects/nsf/lhu120/cmw414/pent_slip_x/3_0A/dimer/dimer.chk
%nprocshared=24
%mem=110GB
#p b3lyp/6-311g(d,p) nosymm pop=full iop(3/33=1) punch=mo

c47

0 1
 C                 -7.91354603   -5.91915045    0.82802432
 C                 -7.88554603   -5.06315045   -0.22797568
 C                 -7.26454603   -5.38115045   -1.46297568
 C                 -7.24954603   -4.48215045   -2.54797568
 C                 -6.59454603   -4.81515045   -3.76597568
 C                 -6.54554603   -3.95115045   -4.84797568
 C                 -5.99754603   -6.15915045   -3.89997568
 C                 -6.11254603   -7.00315045   -2.84197568
 C                 -6.63354603   -6.69915045   -1.59697568
 C                 -6.75954603   -7.56815045   -0.50597568
 C                 -7.27154603   -7.25115045    0.69902432
 H                 -8.40354603   -5.60015045    1.89502432
 H                 -8.29454603   -4.03915045   -0.13497568
 H                 -7.68354603   -3.46915045   -2.41197568
 H                 -7.01254603   -2.93315045   -4.70297568
 H                 -5.65454603   -8.01415045   -2.93397568
 H                 -6.30254603   -8.57415045   -0.58497568
 H                 -7.28254603   -7.93015045    1.57602432
 C                 -5.94554603   -4.27015045   -6.08597568
 C                 -5.39754603   -6.47815045   -5.13797568
 C                 -5.34754603   -5.61515045   -6.21997568
 C                 -5.83054603   -3.42715045   -7.14397568
 H                 -4.92954603   -7.49715045   -5.28297568
 C                 -4.69354603   -5.94815045   -7.43797568
 C                 -5.30854603   -3.73115045   -8.38897568
 H                 -6.28854603   -2.41615045   -7.05197568
 C                 -4.67854603   -5.04915045   -8.52297568
 H                 -4.25954603   -6.96015045   -7.57397568
 C                 -5.18354603   -2.86215045   -9.47997568
 C                 -4.05754603   -5.36615045   -9.75797568
 C                 -4.67154603   -3.17915045  -10.68497568
 H                 -5.64054603   -1.85615045   -9.40097568
 C                 -4.02954603   -4.51115045  -10.81397568
 H                 -3.64854603   -6.39115045   -9.85097568
 H                 -4.65954603   -2.50015045  -11.56197568
 H                 -3.53954603   -4.83015045  -11.88097568
 C                 -5.55955519   -5.28557798    4.80563065
 C                 -5.53155519   -4.42957798    3.74963065
 C                 -4.91055519   -4.74757798    2.51463065
 C                 -4.89555519   -3.84857798    1.42963065
 C                 -4.24055519   -4.18157798    0.21163065
 C                 -4.19155519   -3.31757798   -0.87036935
 C                 -3.64355519   -5.52557798    0.07763065
 C                 -3.75855519   -6.36957798    1.13563065
 C                 -4.27955519   -6.06557798    2.38063065
 C                 -4.40555519   -6.93457798    3.47163065
 C                 -4.91755519   -6.61757798    4.67663065
 H                 -6.04955519   -4.96657798    5.87263065
 H                 -5.94055519   -3.40557798    3.84263065
 H                 -5.32955519   -2.83557798    1.56563065
 H                 -4.65855519   -2.29957798   -0.72536935
 H                 -3.30055519   -7.38057798    1.04363065
 H                 -3.94855519   -7.94057798    3.39263065
 H                 -4.92855519   -7.29657798    5.55363065
 C                 -3.59155519   -3.63657798   -2.10836935
 C                 -3.04355519   -5.84457798   -1.16036935
 C                 -2.99355519   -4.98157798   -2.24236935
 C                 -3.47655519   -2.79357798   -3.16636935
 H                 -2.57555519   -6.86357798   -1.30536935
 C                 -2.33955519   -5.31457798   -3.46036935
 C                 -2.95455519   -3.09757798   -4.41136935
 H                 -3.93455519   -1.78257798   -3.07436935
 C                 -2.32455519   -4.41557798   -4.54536935
 H                 -1.90555519   -6.32657798   -3.59636935
 C                 -2.82955519   -2.22857798   -5.50236935
 C                 -1.70355519   -4.73257798   -5.78036935
 C                 -2.31755519   -2.54557798   -6.70736935
 H                 -3.28655519   -1.22257798   -5.42336935
 C                 -1.67555519   -3.87757798   -6.83636935
 H                 -1.29455519   -5.75757798   -5.87336935
 H                 -2.30555519   -1.86657798   -7.58436935
 H                 -1.18555519   -4.19657798   -7.90336935

 1 2 2.0 11 1.0 12 1.0
 2 3 1.5 13 1.0
 3 4 1.5 9 1.0
 4 5 1.5 14 1.0
 5 6 2.0 7 1.0
 6 15 1.0 19 1.5
 7 8 2.0 20 1.5
 8 9 2.0 16 1.0
 9 10 1.5
 10 11 2.0 17 1.0
 11 18 1.0
 12
 13
 14
 15
 16
 17
 18
 19 21 1.0 22 2.0
 20 21 2.0 23 1.0
 21 24 1.5
 22 25 2.0 26 1.0
 23
 24 27 1.5 28 1.0
 25 27 1.0 29 1.5
 26
 27 30 1.5
 28
 29 31 2.0 32 1.0
 30 33 2.0 34 1.0
 31 33 1.0 35 1.0
 32
 33 36 1.0
 34
 35
 36
 37 38 2.0 47 1.0 48 1.0
 38 39 1.5 49 1.0
 39 40 1.5 45 1.0
 40 41 1.5 50 1.0
 41 42 2.0 43 1.0
 42 51 1.0 55 1.5
 43 44 2.0 56 1.5
 44 45 2.0 52 1.0
 45 46 1.5
 46 47 2.0 53 1.0
 47 54 1.0
 48
 49
 50
 51
 52
 53
 54
 55 57 1.0 58 2.0
 56 57 2.0 59 1.0
 57 60 1.5
 58 61 2.0 62 1.0
 59
 60 63 1.5 64 1.0
 61 63 1.0 65 1.5
 62
 63 66 1.5
 64
 65 67 2.0 68 1.0
 66 69 2.0 70 1.0
 67 69 1.0 71 1.0
 68
 69 72 1.0
 70
 71
 72

