%chk=/oasis/projects/nsf/lhu120/cmw414/pent_y_stack/4_0A/dimer/dimer.chk
%nprocshared=24
%mem=110GB
#p b3lyp/6-311g(d,p) nosymm pop=full iop(3/33=1) punch=mo

c47

0 1
 C                 -7.09074671  -10.21554351    3.28259869
 C                 -7.06274671   -9.35954351    2.22659869
 C                 -6.44174671   -9.67754351    0.99159869
 C                 -6.42674671   -8.77854351   -0.09340131
 C                 -5.77174671   -9.11154351   -1.31140131
 C                 -5.72274671   -8.24754351   -2.39340131
 C                 -5.17474671  -10.45554351   -1.44540131
 C                 -5.28974671  -11.29954351   -0.38740131
 C                 -5.81074671  -10.99554351    0.85759869
 C                 -5.93674671  -11.86454351    1.94859869
 C                 -6.44874671  -11.54754351    3.15359869
 H                 -7.58074671   -9.89654351    4.34959869
 H                 -7.47174671   -8.33554351    2.31959869
 H                 -6.86074671   -7.76554351    0.04259869
 H                 -6.18974671   -7.22954351   -2.24840131
 H                 -4.83174671  -12.31054351   -0.47940131
 H                 -5.47974671  -12.87054351    1.86959869
 H                 -6.45974671  -12.22654351    4.03059869
 C                 -5.12274671   -8.56654351   -3.63140131
 C                 -4.57474671  -10.77454351   -2.68340131
 C                 -4.52474671   -9.91154351   -3.76540131
 C                 -5.00774671   -7.72354351   -4.68940131
 H                 -4.10674671  -11.79354351   -2.82840131
 C                 -3.87074671  -10.24454351   -4.98340131
 C                 -4.48574671   -8.02754351   -5.93440131
 H                 -5.46574671   -6.71254351   -4.59740131
 C                 -3.85574671   -9.34554351   -6.06840131
 H                 -3.43674671  -11.25654351   -5.11940131
 C                 -4.36074671   -7.15854351   -7.02540131
 C                 -3.23474671   -9.66254351   -7.30340131
 C                 -3.84874671   -7.47554351   -8.23040131
 H                 -4.81774671   -6.15254351   -6.94640131
 C                 -3.20674671   -8.80754351   -8.35940131
 H                 -2.82574671  -10.68754351   -7.39640131
 H                 -3.83674671   -6.79654351   -9.10740131
 H                 -2.71674671   -9.12654351   -9.42640131
 C                 -5.55955519   -5.28557798    4.80563065
 C                 -5.53155519   -4.42957798    3.74963065
 C                 -4.91055519   -4.74757798    2.51463065
 C                 -4.89555519   -3.84857798    1.42963065
 C                 -4.24055519   -4.18157798    0.21163065
 C                 -4.19155519   -3.31757798   -0.87036935
 C                 -3.64355519   -5.52557798    0.07763065
 C                 -3.75855519   -6.36957798    1.13563065
 C                 -4.27955519   -6.06557798    2.38063065
 C                 -4.40555519   -6.93457798    3.47163065
 C                 -4.91755519   -6.61757798    4.67663065
 H                 -6.04955519   -4.96657798    5.87263065
 H                 -5.94055519   -3.40557798    3.84263065
 H                 -5.32955519   -2.83557798    1.56563065
 H                 -4.65855519   -2.29957798   -0.72536935
 H                 -3.30055519   -7.38057798    1.04363065
 H                 -3.94855519   -7.94057798    3.39263065
 H                 -4.92855519   -7.29657798    5.55363065
 C                 -3.59155519   -3.63657798   -2.10836935
 C                 -3.04355519   -5.84457798   -1.16036935
 C                 -2.99355519   -4.98157798   -2.24236935
 C                 -3.47655519   -2.79357798   -3.16636935
 H                 -2.57555519   -6.86357798   -1.30536935
 C                 -2.33955519   -5.31457798   -3.46036935
 C                 -2.95455519   -3.09757798   -4.41136935
 H                 -3.93455519   -1.78257798   -3.07436935
 C                 -2.32455519   -4.41557798   -4.54536935
 H                 -1.90555519   -6.32657798   -3.59636935
 C                 -2.82955519   -2.22857798   -5.50236935
 C                 -1.70355519   -4.73257798   -5.78036935
 C                 -2.31755519   -2.54557798   -6.70736935
 H                 -3.28655519   -1.22257798   -5.42336935
 C                 -1.67555519   -3.87757798   -6.83636935
 H                 -1.29455519   -5.75757798   -5.87336935
 H                 -2.30555519   -1.86657798   -7.58436935
 H                 -1.18555519   -4.19657798   -7.90336935

 1 2 2.0 11 1.0 12 1.0
 2 3 1.5 13 1.0
 3 4 1.5 9 1.0
 4 5 1.5 14 1.0
 5 6 2.0 7 1.0
 6 15 1.0 19 1.5
 7 8 2.0 20 1.5
 8 9 2.0 16 1.0
 9 10 1.5
 10 11 2.0 17 1.0
 11 18 1.0
 12
 13
 14
 15
 16
 17
 18
 19 21 1.0 22 2.0
 20 21 2.0 23 1.0
 21 24 1.5
 22 25 2.0 26 1.0
 23
 24 27 1.5 28 1.0
 25 27 1.0 29 1.5
 26
 27 30 1.5
 28
 29 31 2.0 32 1.0
 30 33 2.0 34 1.0
 31 33 1.0 35 1.0
 32
 33 36 1.0
 34
 35
 36
 37 38 2.0 47 1.0 48 1.0
 38 39 1.5 49 1.0
 39 40 1.5 45 1.0
 40 41 1.5 50 1.0
 41 42 2.0 43 1.0
 42 51 1.0 55 1.5
 43 44 2.0 56 1.5
 44 45 2.0 52 1.0
 45 46 1.5
 46 47 2.0 53 1.0
 47 54 1.0
 48
 49
 50
 51
 52
 53
 54
 55 57 1.0 58 2.0
 56 57 2.0 59 1.0
 57 60 1.5
 58 61 2.0 62 1.0
 59
 60 63 1.5 64 1.0
 61 63 1.0 65 1.5
 62
 63 66 1.5
 64
 65 67 2.0 68 1.0
 66 69 2.0 70 1.0
 67 69 1.0 71 1.0
 68
 69 72 1.0
 70
 71
 72


