%chk=/oasis/projects/nsf/lhu120/cmw414/rc_slip_y_90/0_8A/dimer/dimer.chk
%mem=110GB
#p b3lyp/6-311g(d,p) nosymm pop=full iop(3/33=1) punch=mo

c47

2 1
 O                  1.86343256   -2.18814168   -0.63312396
 O                 -1.87688744    1.76594132   -0.63317696
 C                  3.69461456   -0.67140268   -0.87047896
 C                 -1.39648944   -0.60712468   -0.87219696
 C                  5.97175156   -1.62878468   -0.73581696
 C                  0.95630456   -1.17504168   -0.77241696
 C                  3.19421256   -1.96292068   -0.63793396
 C                  5.65376956    0.77013232   -1.23999596
 C                  1.38305156    0.18492932   -0.87218096
 C                 -3.20766744    1.54071032   -0.63799196
 C                 -2.81321944   -0.85705968   -1.03609996
 C                 -3.70805744    0.24918032   -0.87049696
 C                 -0.37497644   -1.59266368   -0.78251796
 C                  0.36153156    1.17047132   -0.78252296
 C                  5.10807156   -0.51188368   -0.94441996
 C                 -0.96975044    0.75284632   -0.77244796
 C                  5.39488456   -2.90675768   -0.47207296
 H                  6.04966056   -3.75780568   -0.31297796
 C                  4.74462556    1.84550032   -1.48258496
 H                  5.14791656    2.81613132   -1.75583896
 C                  3.38157356    1.68676032   -1.38711396
 H                  2.74968056    2.53497832   -1.59754396
 C                  4.02720956   -3.07643968   -0.43155996
 H                  3.57365556   -4.04439768   -0.25108496
 C                 -5.12151244    0.08963932   -0.94441896
 C                  2.79978656    0.43484332   -1.03611196
 C                  7.36964356   -1.42936968   -0.80567596
 H                  8.03205756   -2.27390668   -0.64047896
 C                  7.05237556    0.92132132   -1.30766596
 H                  7.47035056    1.89702532   -1.53701096
 C                 -0.64793744   -3.04866968   -0.59509396
 C                 -5.66719544   -1.19239768   -1.23993096
 C                  0.63446856    2.62647732   -0.59506596
 C                 -3.39498944   -2.10900768   -1.38701396
 H                 -2.76308144   -2.95723068   -1.59738596
 C                 -4.04067744    2.65422632   -0.43164996
 H                 -3.58713344    3.62219432   -0.25120396
 C                 -7.06580044   -1.34360768   -1.30758296
 H                 -7.48376544   -2.31932768   -1.53687896
 C                  7.89727656   -0.17032768   -1.08596396
 H                  8.97295756   -0.03707868   -1.13791896
 C                 -5.40835044    2.48452732   -0.47215796
 H                 -6.06313544    3.33557232   -0.31308796
 C                  1.19132356    3.07285032    0.61237504
 H                  1.43075056    2.35253132    1.38925504
 C                 -5.98520444    1.20653832   -0.73585396
 C                 -4.75804044   -2.26777068   -1.48246496
 H                 -5.16132144   -3.23842268   -1.75565596
 C                 -1.20495544   -3.49503768    0.61227204
 H                 -1.44447744   -2.77471768    1.38912204
 C                 -0.33428944   -3.98126668   -1.59421096
 H                  0.10494656   -3.63898068   -2.52632896
 C                 -7.38309444    1.00710232   -0.80569496
 H                 -8.04551744    1.85163832   -0.64052696
 C                 -1.46487044   -4.85334768    0.80924704
 H                 -1.90033044   -5.18805568    1.74603204
 C                 -1.16705344   -5.77762768   -0.19748196
 H                 -1.37357744   -6.83295368   -0.04661296
 C                  1.45120356    4.43116132    0.80938404
 H                  1.88654356    4.76587132    1.74622404
 C                  0.32092856    3.55907532   -1.59421596
 H                 -0.11819244    3.21678732   -2.52638696
 C                 -7.91071344   -0.25195768   -1.08592496
 H                 -8.98639244   -0.38522368   -1.13786596
 C                 -0.59829944   -5.33868768   -1.39838196
 H                 -0.36076744   -6.05187768   -2.18204296
 C                  1.15351056    5.35543932   -0.19738296
 H                  1.36000956    6.41076732   -0.04648696
 C                  0.58490756    4.91649632   -1.39835396
 H                  0.34746656    5.62968632   -2.18204196
 O                 12.59120315   -1.95860145    3.10645453
 O                  8.59476870    1.45467219    1.69123695
 C                 14.32026880   -0.51284948    2.31260609
 C                  9.23702930   -0.80210915    2.33450541
 C                 16.65392363   -1.19613034    2.76785268
 C                 11.62063093   -1.13159348    2.61380584
 C                 13.90379170   -1.66033440    3.00710108
 C                 16.18422413    0.82344906    1.42219552
 C                 11.95684907    0.12302294    2.01842193
 C                  7.28233966    1.15286935    1.78163979
 C                  7.84313667   -1.19100394    2.28675848
 C                  6.87355025   -0.16501568    2.04349612
 C                 10.32068508   -1.61389524    2.76983491
 C                 10.87022643    1.00051865    1.74993127
 C                 15.72088195   -0.29522323    2.17226406
 C                  9.56994682    0.52560633    1.92473148
 C                 16.15974114   -2.32484614    3.48711323
 H                 16.86737438   -3.01148692    3.94110129
 C                 15.20917170    1.67025363    0.81063739
 H                 15.55094998    2.49841503    0.19681965
 C                 13.85843578    1.46468678    0.97025751
 H                 13.17466785    2.13145824    0.46933780
 C                 14.80603367   -2.56101887    3.59965968
 H                 14.41546429   -3.42413164    4.12664835
 C                 13.35615846    0.39178339    1.76118766
 C                 18.03626737   -0.94105206    2.61682440
 H                 18.75098325   -1.61889278    3.07403141
 C                 17.57047657    1.03462724    1.29087894
 H                 17.92583914    1.88458844    0.71591466
 C                 10.14287652   -2.91498856    3.48055932
 C                  5.02180994   -1.77209742    2.24646518
 C                 11.04182424    2.43896309    1.38796446
 C                  7.35246239   -2.52111014    2.42469693
 H                  8.04319028   -3.34206298    2.53413997
 C                  6.37327372    2.20476528    1.57303825
 H                  6.75787604    3.20012459    1.38181618
 C                  3.63779318   -2.03287569    2.25189738
 H                  3.29001080   -3.05089266    2.40018689
 C                 18.48287526    0.16066724    1.88956882
 H                 19.54791617    0.33886502    1.78243504
 C                  5.02090650    1.93889160    1.61021587
 H                  4.30801368    2.74210156    1.45222263
 C                 11.54750414    3.33366029    2.34245641
 H                 11.82182102    2.96626545    3.32708759
 C                  4.53544259    0.61691296    1.83879689
 C                  6.00487986   -2.79665023    2.40670789
 C                  9.59718118   -2.92493047    4.77259797
 H                  9.29712765   -1.98826962    5.23342545
 C                 10.53477606   -4.12499598    2.89009863
 H                 10.96540435   -4.11884539    1.89337731
 C                  3.15540779    0.31063061    1.85986785
 H                  2.43523085    1.10951231    1.71000477
 C                  9.42568142   -4.13097561    5.45626743
 H                  8.99823517   -4.12812598    6.45451719
 C                  9.80135588   -5.33713726    4.85582215
 H                  9.66357199   -6.27527087    5.38501730
 C                 11.71246684    4.68405589    2.02531608
 H                 12.10887209    5.36767789    2.77012794
 C                 10.68301055    2.91683322    0.11940624
 H                 10.28326422    2.22763128   -0.61824859
 C                  2.71806552   -0.99647279    2.06567165
 C                 10.35915040   -5.33091620    3.57241386
 H                 10.65685316   -6.26359242    3.10265422
 C                 11.37014574    5.15249880    0.75257564
 H                 11.50292440    6.20119631    0.50411645
 C                 10.85214106    4.26626310   -0.19851275
 H                 10.58039565    4.62468410   -1.18688206
 C                  5.47538080   -0.43683776    2.04628705
 H                  5.67703883   -3.80987489    2.51061190
 H                  1.66958430   -1.20973383    2.07600931

 1 6 1.0 7 1.0
 2 10 1.0 16 1.0
 3 7 1.5 15 1.5 26 1.5
 4 11 1.0 13 1.5 16 1.5
 5 15 1.5 17 1.5 27 1.5
 6 9 1.5 13 1.5
 7 23 1.5
 8 15 1.5 19 1.5 29 1.5
 9 14 1.5 26 1.0
 10 12 1.5 36 1.5
 11 12 1.5 34 1.5
 12 25 1.5
 13 31 1.0
 14 16 1.5 33 1.0
 15
 16
 17 18 1.0 23 2.0
 18
 19 20 1.0 21 2.0
 20
 21 22 1.0 26 1.5
 22
 23 24 1.0
 24
 25 32 1.5 46 1.5
 26
 27 28 1.0 40 1.5
 28
 29 30 1.0 40 1.5
 30
 31 49 1.5 51 1.5
 32 38 1.5 47 1.5
 33 44 1.5 61 1.5
 34 35 1.0 47 2.0
 35
 36 37 1.0 42 2.0
 37
 38 39 1.0 63 1.5
 39
 40 41 1.0
 41
 42 43 1.0 46 1.5
 43
 44 45 1.0 59 1.5
 45
 46 53 1.5
 47 48 1.0
 48
 49 50 1.0 55 1.5
 50
 51 52 1.0 65 1.5
 52
 53 54 1.0 63 1.5
 54
 55 56 1.0 57 1.5
 56
 57 58 1.0 65 1.5
 58
 59 60 1.0 67 1.5
 60
 61 62 1.0 69 1.5
 62
 63 64 1.0
 64
 65 66 1.0
 66
 67 68 1.0 69 1.5
 68
 69 70 1.0
 70
 71 76 1.0 77 1.0
 72 80 1.0 86 1.0
 73 77 1.5 85 1.5 95 1.5
 74 81 1.0 83 1.5 86 1.5
 75 85 1.5 87 1.5 96 1.5
 76 79 1.5 83 1.5
 77 93 1.5
 78 85 1.5 89 1.5 98 1.5
 79 84 1.5 95 1.0
 80 82 1.5 105 1.5
 81 82 1.5 103 1.5
 82 140 1.5
 83 100 1.0
 84 86 1.5 102 1.0
 85
 86
 87 88 1.0 93 2.0
 88
 89 90 1.0 91 2.0
 90
 91 92 1.0 95 1.5
 92
 93 94 1.0
 94
 95
 96 97 1.0 109 1.5
 97
 98 99 1.0 109 1.5
 99
 100 118 1.5 120 1.5
 101 107 1.5 116 1.5 140 1.5
 102 113 1.5 130 1.5
 103 104 1.0 116 2.0
 104
 105 106 1.0 111 2.0
 106
 107 108 1.0 132 1.5
 108
 109 110 1.0
 110
 111 112 1.0 115 1.5
 112
 113 114 1.0 128 1.5
 114
 115 122 1.5 140 1.5
 116 117 1.0
 117
 118 119 1.0 124 1.5
 119
 120 121 1.0 134 1.5
 121
 122 123 1.0 132 1.5
 123
 124 125 1.0 126 1.5
 125
 126 127 1.0 134 1.5
 127
 128 129 1.0 136 1.5
 129
 130 131 1.0 138 1.5
 131
 132 133 1.0
 133
 134 135 1.0
 135
 136 137 1.0 138 1.5
 137
 138 139 1.0
 139
 140















