%chk=/oasis/projects/nsf/lhu120/cmw414/rc_slip_x_new/n_0_1A/dimer/dimer.chk
%mem=110GB
#p b3lyp/6-311g(d,p) nosymm pop=full iop(3/33=1) punch=mo

c47

2 1
 O                  1.86343256   -2.18814168   -0.63312396
 O                 -1.87688744    1.76594132   -0.63317696
 C                  3.69461456   -0.67140268   -0.87047896
 C                 -1.39648944   -0.60712468   -0.87219696
 C                  5.97175156   -1.62878468   -0.73581696
 C                  0.95630456   -1.17504168   -0.77241696
 C                  3.19421256   -1.96292068   -0.63793396
 C                  5.65376956    0.77013232   -1.23999596
 C                  1.38305156    0.18492932   -0.87218096
 C                 -3.20766744    1.54071032   -0.63799196
 C                 -2.81321944   -0.85705968   -1.03609996
 C                 -3.70805744    0.24918032   -0.87049696
 C                 -0.37497644   -1.59266368   -0.78251796
 C                  0.36153156    1.17047132   -0.78252296
 C                  5.10807156   -0.51188368   -0.94441996
 C                 -0.96975044    0.75284632   -0.77244796
 C                  5.39488456   -2.90675768   -0.47207296
 H                  6.04966056   -3.75780568   -0.31297796
 C                  4.74462556    1.84550032   -1.48258496
 H                  5.14791656    2.81613132   -1.75583896
 C                  3.38157356    1.68676032   -1.38711396
 H                  2.74968056    2.53497832   -1.59754396
 C                  4.02720956   -3.07643968   -0.43155996
 H                  3.57365556   -4.04439768   -0.25108496
 C                 -5.12151244    0.08963932   -0.94441896
 C                  2.79978656    0.43484332   -1.03611196
 C                  7.36964356   -1.42936968   -0.80567596
 H                  8.03205756   -2.27390668   -0.64047896
 C                  7.05237556    0.92132132   -1.30766596
 H                  7.47035056    1.89702532   -1.53701096
 C                 -0.64793744   -3.04866968   -0.59509396
 C                 -5.66719544   -1.19239768   -1.23993096
 C                  0.63446856    2.62647732   -0.59506596
 C                 -3.39498944   -2.10900768   -1.38701396
 H                 -2.76308144   -2.95723068   -1.59738596
 C                 -4.04067744    2.65422632   -0.43164996
 H                 -3.58713344    3.62219432   -0.25120396
 C                 -7.06580044   -1.34360768   -1.30758296
 H                 -7.48376544   -2.31932768   -1.53687896
 C                  7.89727656   -0.17032768   -1.08596396
 H                  8.97295756   -0.03707868   -1.13791896
 C                 -5.40835044    2.48452732   -0.47215796
 H                 -6.06313544    3.33557232   -0.31308796
 C                  1.19132356    3.07285032    0.61237504
 H                  1.43075056    2.35253132    1.38925504
 C                 -5.98520444    1.20653832   -0.73585396
 C                 -4.75804044   -2.26777068   -1.48246496
 H                 -5.16132144   -3.23842268   -1.75565596
 C                 -1.20495544   -3.49503768    0.61227204
 H                 -1.44447744   -2.77471768    1.38912204
 C                 -0.33428944   -3.98126668   -1.59421096
 H                  0.10494656   -3.63898068   -2.52632896
 C                 -7.38309444    1.00710232   -0.80569496
 H                 -8.04551744    1.85163832   -0.64052696
 C                 -1.46487044   -4.85334768    0.80924704
 H                 -1.90033044   -5.18805568    1.74603204
 C                 -1.16705344   -5.77762768   -0.19748196
 H                 -1.37357744   -6.83295368   -0.04661296
 C                  1.45120356    4.43116132    0.80938404
 H                  1.88654356    4.76587132    1.74622404
 C                  0.32092856    3.55907532   -1.59421596
 H                 -0.11819244    3.21678732   -2.52638696
 C                 -7.91071344   -0.25195768   -1.08592496
 H                 -8.98639244   -0.38522368   -1.13786596
 C                 -0.59829944   -5.33868768   -1.39838196
 H                 -0.36076744   -6.05187768   -2.18204296
 C                  1.15351056    5.35543932   -0.19738296
 H                  1.36000956    6.41076732   -0.04648696
 C                  0.58490756    4.91649632   -1.39835396
 H                  0.34746656    5.62968632   -2.18204196
 O                 12.15113889   -1.26188962    3.01012626
 O                  8.15470444    2.15138402    1.59490868
 C                 13.88020454    0.18386235    2.21627782
 C                  8.79696504   -0.10539732    2.23817714
 C                 16.21385937   -0.49941851    2.67152441
 C                 11.18056667   -0.43488165    2.51747757
 C                 13.46372744   -0.96362257    2.91077281
 C                 15.74415987    1.52016089    1.32586725
 C                 11.51678481    0.81973477    1.92209366
 C                  6.84227540    1.84958118    1.68531152
 C                  7.40307241   -0.49429211    2.19043021
 C                  6.43348599    0.53169615    1.94716785
 C                  9.88062082   -0.91718341    2.67350664
 C                 10.43016217    1.69723048    1.65360300
 C                 15.28081769    0.40148860    2.07593579
 C                  9.12988256    1.22231816    1.82840321
 C                 15.71967688   -1.62813431    3.39078496
 H                 16.42731012   -2.31477509    3.84477302
 C                 14.76910744    2.36696546    0.71430912
 H                 15.11088572    3.19512686    0.10049138
 C                 13.41837152    2.16139861    0.87392924
 H                 12.73460359    2.82817007    0.37300953
 C                 14.36596941   -1.86430704    3.50333141
 H                 13.97540003   -2.72741981    4.03032008
 C                 12.91609420    1.08849522    1.66485939
 C                 17.59620311   -0.24434023    2.52049613
 H                 18.31091899   -0.92218095    2.97770314
 C                 17.13041231    1.73133907    1.19455067
 H                 17.48577488    2.58130027    0.61958639
 C                  9.70281226   -2.21827673    3.38423105
 C                  4.58174568   -1.07538559    2.15013691
 C                 10.60175998    3.13567492    1.29163619
 C                  6.91239813   -1.82439831    2.32836866
 H                  7.60312602   -2.64535115    2.43781170
 C                  5.93320946    2.90147711    1.47670998
 H                  6.31781178    3.89683642    1.28548791
 C                  3.19772892   -1.33616386    2.15556911
 H                  2.84994654   -2.35418083    2.30385862
 C                 18.04281100    0.85737907    1.79324055
 H                 19.10785191    1.03557685    1.68610677
 C                  4.58084224    2.63560343    1.51388760
 H                  3.86794942    3.43881339    1.35589436
 C                 11.10743988    4.03037212    2.24612814
 H                 11.38175676    3.66297728    3.23075932
 C                  4.09537833    1.31362479    1.74246862
 C                  5.56481560   -2.09993840    2.31037962
 C                  9.15711692   -2.22821864    4.67626970
 H                  8.85706339   -1.29155779    5.13709718
 C                 10.09471180   -3.42828415    2.79377036
 H                 10.52534009   -3.42213356    1.79704904
 C                  2.71534353    1.00734244    1.76353958
 H                  1.99516659    1.80622414    1.61367650
 C                  8.98561716   -3.43426378    5.35993916
 H                  8.55817091   -3.43141415    6.35818892
 C                  9.36129162   -4.64042543    4.75949388
 H                  9.22350773   -5.57855904    5.28868903
 C                 11.27240258    5.38076772    1.92898781
 H                 11.66880783    6.06438972    2.67379967
 C                 10.24294629    3.61354505    0.02307797
 H                  9.84319996    2.92434311   -0.71457686
 C                  2.27800126   -0.29976096    1.96934338
 C                  9.91908614   -4.63420437    3.47608559
 H                 10.21678890   -5.56688059    3.00632595
 C                 10.93008148    5.84921063    0.65624737
 H                 11.06286014    6.89790814    0.40778818
 C                 10.41207680    4.96297493   -0.29484102
 H                 10.14033139    5.32139593   -1.28321033
 C                  5.03531654    0.25987407    1.94995878
 H                  5.23697457   -3.11316306    2.41428363
 H                  1.22952004   -0.51302200    1.97968104

 1 6 1.0 7 1.0
 2 10 1.0 16 1.0
 3 7 1.5 15 1.5 26 1.5
 4 11 1.0 13 1.5 16 1.5
 5 15 1.5 17 1.5 27 1.5
 6 9 1.5 13 1.5
 7 23 1.5
 8 15 1.5 19 1.5 29 1.5
 9 14 1.5 26 1.0
 10 12 1.5 36 1.5
 11 12 1.5 34 1.5
 12 25 1.5
 13 31 1.0
 14 16 1.5 33 1.0
 15
 16
 17 18 1.0 23 2.0
 18
 19 20 1.0 21 2.0
 20
 21 22 1.0 26 1.5
 22
 23 24 1.0
 24
 25 32 1.5 46 1.5
 26
 27 28 1.0 40 1.5
 28
 29 30 1.0 40 1.5
 30
 31 49 1.5 51 1.5
 32 38 1.5 47 1.5
 33 44 1.5 61 1.5
 34 35 1.0 47 2.0
 35
 36 37 1.0 42 2.0
 37
 38 39 1.0 63 1.5
 39
 40 41 1.0
 41
 42 43 1.0 46 1.5
 43
 44 45 1.0 59 1.5
 45
 46 53 1.5
 47 48 1.0
 48
 49 50 1.0 55 1.5
 50
 51 52 1.0 65 1.5
 52
 53 54 1.0 63 1.5
 54
 55 56 1.0 57 1.5
 56
 57 58 1.0 65 1.5
 58
 59 60 1.0 67 1.5
 60
 61 62 1.0 69 1.5
 62
 63 64 1.0
 64
 65 66 1.0
 66
 67 68 1.0 69 1.5
 68
 69 70 1.0
 70
 71 76 1.0 77 1.0
 72 80 1.0 86 1.0
 73 77 1.5 85 1.5 95 1.5
 74 81 1.0 83 1.5 86 1.5
 75 85 1.5 87 1.5 96 1.5
 76 79 1.5 83 1.5
 77 93 1.5
 78 85 1.5 89 1.5 98 1.5
 79 84 1.5 95 1.0
 80 82 1.5 105 1.5
 81 82 1.5 103 1.5
 82 140 1.5
 83 100 1.0
 84 86 1.5 102 1.0
 85
 86
 87 88 1.0 93 2.0
 88
 89 90 1.0 91 2.0
 90
 91 92 1.0 95 1.5
 92
 93 94 1.0
 94
 95
 96 97 1.0 109 1.5
 97
 98 99 1.0 109 1.5
 99
 100 118 1.5 120 1.5
 101 107 1.5 116 1.5 140 1.5
 102 113 1.5 130 1.5
 103 104 1.0 116 2.0
 104
 105 106 1.0 111 2.0
 106
 107 108 1.0 132 1.5
 108
 109 110 1.0
 110
 111 112 1.0 115 1.5
 112
 113 114 1.0 128 1.5
 114
 115 122 1.5 140 1.5
 116 117 1.0
 117
 118 119 1.0 124 1.5
 119
 120 121 1.0 134 1.5
 121
 122 123 1.0 132 1.5
 123
 124 125 1.0 126 1.5
 125
 126 127 1.0 134 1.5
 127
 128 129 1.0 136 1.5
 129
 130 131 1.0 138 1.5
 131
 132 133 1.0
 133
 134 135 1.0
 135
 136 137 1.0 138 1.5
 137
 138 139 1.0
 139
 140

















































