%chk=/oasis/projects/nsf/lhu120/cmw414/pent_slip_x/2_4A/dimer/dimer.chk
%nprocshared=24
%mem=110GB
#p b3lyp/6-311g(d,p) nosymm pop=full iop(3/33=1) punch=mo

c47

0 1
 C                 -8.07337613   -6.05072537    1.39117828
 C                 -8.04537613   -5.19472537    0.33517828
 C                 -7.42437613   -5.51272537   -0.89982172
 C                 -7.40937613   -4.61372537   -1.98482172
 C                 -6.75437613   -4.94672537   -3.20282172
 C                 -6.70537613   -4.08272537   -4.28482172
 C                 -6.15737613   -6.29072537   -3.33682172
 C                 -6.27237613   -7.13472537   -2.27882172
 C                 -6.79337613   -6.83072537   -1.03382172
 C                 -6.91937613   -7.69972537    0.05717828
 C                 -7.43137613   -7.38272537    1.26217828
 H                 -8.56337613   -5.73172537    2.45817828
 H                 -8.45437613   -4.17072537    0.42817828
 H                 -7.84337613   -3.60072537   -1.84882172
 H                 -7.17237613   -3.06472537   -4.13982172
 H                 -5.81437613   -8.14572537   -2.37082172
 H                 -6.46237613   -8.70572537   -0.02182172
 H                 -7.44237613   -8.06172537    2.13917828
 C                 -6.10537613   -4.40172537   -5.52282172
 C                 -5.55737613   -6.60972537   -4.57482172
 C                 -5.50737613   -5.74672537   -5.65682172
 C                 -5.99037613   -3.55872537   -6.58082172
 H                 -5.08937613   -7.62872537   -4.71982172
 C                 -4.85337613   -6.07972537   -6.87482172
 C                 -5.46837613   -3.86272537   -7.82582172
 H                 -6.44837613   -2.54772537   -6.48882172
 C                 -4.83837613   -5.18072537   -7.95982172
 H                 -4.41937613   -7.09172537   -7.01082172
 C                 -5.34337613   -2.99372537   -8.91682172
 C                 -4.21737613   -5.49772537   -9.19482172
 C                 -4.83137613   -3.31072537  -10.12182172
 H                 -5.80037613   -1.98772537   -8.83782172
 C                 -4.18937613   -4.64272537  -10.25082172
 H                 -3.80837613   -6.52272537   -9.28782172
 H                 -4.81937613   -2.63172537  -10.99882172
 H                 -3.69937613   -4.96172537  -11.31782172
 C                 -5.55955519   -5.28557798    4.80563065
 C                 -5.53155519   -4.42957798    3.74963065
 C                 -4.91055519   -4.74757798    2.51463065
 C                 -4.89555519   -3.84857798    1.42963065
 C                 -4.24055519   -4.18157798    0.21163065
 C                 -4.19155519   -3.31757798   -0.87036935
 C                 -3.64355519   -5.52557798    0.07763065
 C                 -3.75855519   -6.36957798    1.13563065
 C                 -4.27955519   -6.06557798    2.38063065
 C                 -4.40555519   -6.93457798    3.47163065
 C                 -4.91755519   -6.61757798    4.67663065
 H                 -6.04955519   -4.96657798    5.87263065
 H                 -5.94055519   -3.40557798    3.84263065
 H                 -5.32955519   -2.83557798    1.56563065
 H                 -4.65855519   -2.29957798   -0.72536935
 H                 -3.30055519   -7.38057798    1.04363065
 H                 -3.94855519   -7.94057798    3.39263065
 H                 -4.92855519   -7.29657798    5.55363065
 C                 -3.59155519   -3.63657798   -2.10836935
 C                 -3.04355519   -5.84457798   -1.16036935
 C                 -2.99355519   -4.98157798   -2.24236935
 C                 -3.47655519   -2.79357798   -3.16636935
 H                 -2.57555519   -6.86357798   -1.30536935
 C                 -2.33955519   -5.31457798   -3.46036935
 C                 -2.95455519   -3.09757798   -4.41136935
 H                 -3.93455519   -1.78257798   -3.07436935
 C                 -2.32455519   -4.41557798   -4.54536935
 H                 -1.90555519   -6.32657798   -3.59636935
 C                 -2.82955519   -2.22857798   -5.50236935
 C                 -1.70355519   -4.73257798   -5.78036935
 C                 -2.31755519   -2.54557798   -6.70736935
 H                 -3.28655519   -1.22257798   -5.42336935
 C                 -1.67555519   -3.87757798   -6.83636935
 H                 -1.29455519   -5.75757798   -5.87336935
 H                 -2.30555519   -1.86657798   -7.58436935
 H                 -1.18555519   -4.19657798   -7.90336935

 1 2 2.0 11 1.0 12 1.0
 2 3 1.5 13 1.0
 3 4 1.5 9 1.0
 4 5 1.5 14 1.0
 5 6 2.0 7 1.0
 6 15 1.0 19 1.5
 7 8 2.0 20 1.5
 8 9 2.0 16 1.0
 9 10 1.5
 10 11 2.0 17 1.0
 11 18 1.0
 12
 13
 14
 15
 16
 17
 18
 19 21 1.0 22 2.0
 20 21 2.0 23 1.0
 21 24 1.5
 22 25 2.0 26 1.0
 23
 24 27 1.5 28 1.0
 25 27 1.0 29 1.5
 26
 27 30 1.5
 28
 29 31 2.0 32 1.0
 30 33 2.0 34 1.0
 31 33 1.0 35 1.0
 32
 33 36 1.0
 34
 35
 36
 37 38 2.0 47 1.0 48 1.0
 38 39 1.5 49 1.0
 39 40 1.5 45 1.0
 40 41 1.5 50 1.0
 41 42 2.0 43 1.0
 42 51 1.0 55 1.5
 43 44 2.0 56 1.5
 44 45 2.0 52 1.0
 45 46 1.5
 46 47 2.0 53 1.0
 47 54 1.0
 48
 49
 50
 51
 52
 53
 54
 55 57 1.0 58 2.0
 56 57 2.0 59 1.0
 57 60 1.5
 58 61 2.0 62 1.0
 59
 60 63 1.5 64 1.0
 61 63 1.0 65 1.5
 62
 63 66 1.5
 64
 65 67 2.0 68 1.0
 66 69 2.0 70 1.0
 67 69 1.0 71 1.0
 68
 69 72 1.0
 70
 71
 72

