%chk=/oasis/projects/nsf/lhu120/cmw414/pent_y_stack/0_6A/dimer/dimer.chk
%nprocshared=24
%mem=110GB
#p b3lyp/6-311g(d,p) nosymm pop=full iop(3/33=1) punch=mo

c47

0 1
 C                 -8.46940406   -7.12280281    3.58961479
 C                 -8.44140406   -6.26680281    2.53361479
 C                 -7.82040406   -6.58480281    1.29861479
 C                 -7.80540406   -5.68580281    0.21361479
 C                 -7.15040406   -6.01880281   -1.00438521
 C                 -7.10140406   -5.15480281   -2.08638521
 C                 -6.55340406   -7.36280281   -1.13838521
 C                 -6.66840406   -8.20680281   -0.08038521
 C                 -7.18940406   -7.90280281    1.16461479
 C                 -7.31540406   -8.77180281    2.25561479
 C                 -7.82740406   -8.45480281    3.46061479
 H                 -8.95940406   -6.80380281    4.65661479
 H                 -8.85040406   -5.24280281    2.62661479
 H                 -8.23940406   -4.67280281    0.34961479
 H                 -7.56840406   -4.13680281   -1.94138521
 H                 -6.21040406   -9.21780281   -0.17238521
 H                 -6.85840406   -9.77780281    2.17661479
 H                 -7.83840406   -9.13380281    4.33761479
 C                 -6.50140406   -5.47380281   -3.32438521
 C                 -5.95340406   -7.68180281   -2.37638521
 C                 -5.90340406   -6.81880281   -3.45838521
 C                 -6.38640406   -4.63080281   -4.38238521
 H                 -5.48540406   -8.70080281   -2.52138521
 C                 -5.24940406   -7.15180281   -4.67638521
 C                 -5.86440406   -4.93480281   -5.62738521
 H                 -6.84440406   -3.61980281   -4.29038521
 C                 -5.23440406   -6.25280281   -5.76138521
 H                 -4.81540406   -8.16380281   -4.81238521
 C                 -5.73940406   -4.06580281   -6.71838521
 C                 -4.61340406   -6.56980281   -6.99638521
 C                 -5.22740406   -4.38280281   -7.92338521
 H                 -6.19640406   -3.05980281   -6.63938521
 C                 -4.58540406   -5.71480281   -8.05238521
 H                 -4.20440406   -7.59480281   -7.08938521
 H                 -5.21540406   -3.70380281   -8.80038521
 H                 -4.09540406   -6.03380281   -9.11938521
 C                 -5.55955519   -5.28557798    4.80563065
 C                 -5.53155519   -4.42957798    3.74963065
 C                 -4.91055519   -4.74757798    2.51463065
 C                 -4.89555519   -3.84857798    1.42963065
 C                 -4.24055519   -4.18157798    0.21163065
 C                 -4.19155519   -3.31757798   -0.87036935
 C                 -3.64355519   -5.52557798    0.07763065
 C                 -3.75855519   -6.36957798    1.13563065
 C                 -4.27955519   -6.06557798    2.38063065
 C                 -4.40555519   -6.93457798    3.47163065
 C                 -4.91755519   -6.61757798    4.67663065
 H                 -6.04955519   -4.96657798    5.87263065
 H                 -5.94055519   -3.40557798    3.84263065
 H                 -5.32955519   -2.83557798    1.56563065
 H                 -4.65855519   -2.29957798   -0.72536935
 H                 -3.30055519   -7.38057798    1.04363065
 H                 -3.94855519   -7.94057798    3.39263065
 H                 -4.92855519   -7.29657798    5.55363065
 C                 -3.59155519   -3.63657798   -2.10836935
 C                 -3.04355519   -5.84457798   -1.16036935
 C                 -2.99355519   -4.98157798   -2.24236935
 C                 -3.47655519   -2.79357798   -3.16636935
 H                 -2.57555519   -6.86357798   -1.30536935
 C                 -2.33955519   -5.31457798   -3.46036935
 C                 -2.95455519   -3.09757798   -4.41136935
 H                 -3.93455519   -1.78257798   -3.07436935
 C                 -2.32455519   -4.41557798   -4.54536935
 H                 -1.90555519   -6.32657798   -3.59636935
 C                 -2.82955519   -2.22857798   -5.50236935
 C                 -1.70355519   -4.73257798   -5.78036935
 C                 -2.31755519   -2.54557798   -6.70736935
 H                 -3.28655519   -1.22257798   -5.42336935
 C                 -1.67555519   -3.87757798   -6.83636935
 H                 -1.29455519   -5.75757798   -5.87336935
 H                 -2.30555519   -1.86657798   -7.58436935
 H                 -1.18555519   -4.19657798   -7.90336935

 1 2 2.0 11 1.0 12 1.0
 2 3 1.5 13 1.0
 3 4 1.5 9 1.0
 4 5 1.5 14 1.0
 5 6 2.0 7 1.0
 6 15 1.0 19 1.5
 7 8 2.0 20 1.5
 8 9 2.0 16 1.0
 9 10 1.5
 10 11 2.0 17 1.0
 11 18 1.0
 12
 13
 14
 15
 16
 17
 18
 19 21 1.0 22 2.0
 20 21 2.0 23 1.0
 21 24 1.5
 22 25 2.0 26 1.0
 23
 24 27 1.5 28 1.0
 25 27 1.0 29 1.5
 26
 27 30 1.5
 28
 29 31 2.0 32 1.0
 30 33 2.0 34 1.0
 31 33 1.0 35 1.0
 32
 33 36 1.0
 34
 35
 36
 37 38 2.0 47 1.0 48 1.0
 38 39 1.5 49 1.0
 39 40 1.5 45 1.0
 40 41 1.5 50 1.0
 41 42 2.0 43 1.0
 42 51 1.0 55 1.5
 43 44 2.0 56 1.5
 44 45 2.0 52 1.0
 45 46 1.5
 46 47 2.0 53 1.0
 47 54 1.0
 48
 49
 50
 51
 52
 53
 54
 55 57 1.0 58 2.0
 56 57 2.0 59 1.0
 57 60 1.5
 58 61 2.0 62 1.0
 59
 60 63 1.5 64 1.0
 61 63 1.0 65 1.5
 62
 63 66 1.5
 64
 65 67 2.0 68 1.0
 66 69 2.0 70 1.0
 67 69 1.0 71 1.0
 68
 69 72 1.0
 70
 71
 72


