%chk=/oasis/projects/nsf/lhu120/cmw414/rc_slip_y_90/n_0_8A/dimer/dimer.chk
%nprocshared=24
%mem=110GB
#p b3lyp/6-311g(d,p) nosymm pop=full iop(3/33=1) punch=mo

c47

2 1
 O                  1.86343256   -2.18814168   -0.63312396
 O                 -1.87688744    1.76594132   -0.63317696
 C                  3.69461456   -0.67140268   -0.87047896
 C                 -1.39648944   -0.60712468   -0.87219696
 C                  5.97175156   -1.62878468   -0.73581696
 C                  0.95630456   -1.17504168   -0.77241696
 C                  3.19421256   -1.96292068   -0.63793396
 C                  5.65376956    0.77013232   -1.23999596
 C                  1.38305156    0.18492932   -0.87218096
 C                 -3.20766744    1.54071032   -0.63799196
 C                 -2.81321944   -0.85705968   -1.03609996
 C                 -3.70805744    0.24918032   -0.87049696
 C                 -0.37497644   -1.59266368   -0.78251796
 C                  0.36153156    1.17047132   -0.78252296
 C                  5.10807156   -0.51188368   -0.94441996
 C                 -0.96975044    0.75284632   -0.77244796
 C                  5.39488456   -2.90675768   -0.47207296
 H                  6.04966056   -3.75780568   -0.31297796
 C                  4.74462556    1.84550032   -1.48258496
 H                  5.14791656    2.81613132   -1.75583896
 C                  3.38157356    1.68676032   -1.38711396
 H                  2.74968056    2.53497832   -1.59754396
 C                  4.02720956   -3.07643968   -0.43155996
 H                  3.57365556   -4.04439768   -0.25108496
 C                 -5.12151244    0.08963932   -0.94441896
 C                  2.79978656    0.43484332   -1.03611196
 C                  7.36964356   -1.42936968   -0.80567596
 H                  8.03205756   -2.27390668   -0.64047896
 C                  7.05237556    0.92132132   -1.30766596
 H                  7.47035056    1.89702532   -1.53701096
 C                 -0.64793744   -3.04866968   -0.59509396
 C                 -5.66719544   -1.19239768   -1.23993096
 C                  0.63446856    2.62647732   -0.59506596
 C                 -3.39498944   -2.10900768   -1.38701396
 H                 -2.76308144   -2.95723068   -1.59738596
 C                 -4.04067744    2.65422632   -0.43164996
 H                 -3.58713344    3.62219432   -0.25120396
 C                 -7.06580044   -1.34360768   -1.30758296
 H                 -7.48376544   -2.31932768   -1.53687896
 C                  7.89727656   -0.17032768   -1.08596396
 H                  8.97295756   -0.03707868   -1.13791896
 C                 -5.40835044    2.48452732   -0.47215796
 H                 -6.06313544    3.33557232   -0.31308796
 C                  1.19132356    3.07285032    0.61237504
 H                  1.43075056    2.35253132    1.38925504
 C                 -5.98520444    1.20653832   -0.73585396
 C                 -4.75804044   -2.26777068   -1.48246496
 H                 -5.16132144   -3.23842268   -1.75565596
 C                 -1.20495544   -3.49503768    0.61227204
 H                 -1.44447744   -2.77471768    1.38912204
 C                 -0.33428944   -3.98126668   -1.59421096
 H                  0.10494656   -3.63898068   -2.52632896
 C                 -7.38309444    1.00710232   -0.80569496
 H                 -8.04551744    1.85163832   -0.64052696
 C                 -1.46487044   -4.85334768    0.80924704
 H                 -1.90033044   -5.18805568    1.74603204
 C                 -1.16705344   -5.77762768   -0.19748196
 H                 -1.37357744   -6.83295368   -0.04661296
 C                  1.45120356    4.43116132    0.80938404
 H                  1.88654356    4.76587132    1.74622404
 C                  0.32092856    3.55907532   -1.59421596
 H                 -0.11819244    3.21678732   -2.52638696
 C                 -7.91071344   -0.25195768   -1.08592496
 H                 -8.98639244   -0.38522368   -1.13786596
 C                 -0.59829944   -5.33868768   -1.39838196
 H                 -0.36076744   -6.05187768   -2.18204296
 C                  1.15351056    5.35543932   -0.19738296
 H                  1.36000956    6.41076732   -0.04648696
 C                  0.58490756    4.91649632   -1.39835396
 H                  0.34746656    5.62968632   -2.18204196
 O                 11.90706299   -0.52535574    2.91213780
 O                  7.91062854    2.88791790    1.49692022
 C                 13.63612864    0.92039623    2.11828936
 C                  8.55288914    0.63113656    2.14018868
 C                 15.96978347    0.23711537    2.57353595
 C                 10.93649077    0.30165223    2.41948911
 C                 13.21965154   -0.22708869    2.81278435
 C                 15.50008397    2.25669477    1.22787879
 C                 11.27270891    1.55626865    1.82410520
 C                  6.59819950    2.58611506    1.58732306
 C                  7.15899651    0.24224177    2.09244175
 C                  6.18941009    1.26823003    1.84917939
 C                  9.63654492   -0.18064953    2.57551818
 C                 10.18608627    2.43376436    1.55561454
 C                 15.03674179    1.13802248    1.97794733
 C                  8.88580666    1.95885204    1.73041475
 C                 15.47560098   -0.89160043    3.29279650
 H                 16.18323422   -1.57824121    3.74678456
 C                 14.52503154    3.10349934    0.61632066
 H                 14.86680982    3.93166074    0.00250292
 C                 13.17429562    2.89793249    0.77594078
 H                 12.49052769    3.56470395    0.27502107
 C                 14.12189351   -1.12777316    3.40534295
 H                 13.73132413   -1.99088593    3.93233162
 C                 12.67201830    1.82502910    1.56687093
 C                 17.35212721    0.49219365    2.42250767
 H                 18.06684309   -0.18564707    2.87971468
 C                 16.88633641    2.46787295    1.09656221
 H                 17.24169898    3.31783415    0.52159793
 C                  9.45873636   -1.48174285    3.28624259
 C                  4.33766978   -0.33885171    2.05214845
 C                 10.35768408    3.87220880    1.19364773
 C                  6.66832223   -1.08786443    2.23038020
 H                  7.35905012   -1.90881727    2.33982324
 C                  5.68913356    3.63801099    1.37872152
 H                  6.07373588    4.63337030    1.18749945
 C                  2.95365302   -0.59962998    2.05758065
 H                  2.60587064   -1.61764695    2.20587016
 C                 17.79873510    1.59391295    1.69525209
 H                 18.86377601    1.77211073    1.58811831
 C                  4.33676634    3.37213731    1.41589914
 H                  3.62387352    4.17534727    1.25790590
 C                 10.86336398    4.76690600    2.14813968
 H                 11.13768086    4.39951116    3.13277086
 C                  3.85130243    2.05015867    1.64448016
 C                  5.32073970   -1.36340452    2.21239116
 C                  8.91304102   -1.49168476    4.57828124
 H                  8.61298749   -0.55502391    5.03910872
 C                  9.85063590   -2.69175027    2.69578190
 H                 10.28126419   -2.68559968    1.69906058
 C                  2.47126763    1.74387632    1.66555112
 H                  1.75109069    2.54275802    1.51568804
 C                  8.74154126   -2.69772990    5.26195070
 H                  8.31409501   -2.69488027    6.26020046
 C                  9.11721572   -3.90389155    4.66150542
 H                  8.97943183   -4.84202516    5.19070057
 C                 11.02832668    6.11730160    1.83099935
 H                 11.42473193    6.80092360    2.57581121
 C                  9.99887039    4.35007893   -0.07491049
 H                  9.59912406    3.66087699   -0.81256532
 C                  2.03392536    0.43677292    1.87135492
 C                  9.67501024   -3.89767049    3.37809713
 H                  9.97271300   -4.83034671    2.90833749
 C                 10.68600558    6.58574451    0.55825891
 H                 10.81878424    7.63444202    0.30979972
 C                 10.16800090    5.69950881   -0.39282948
 H                  9.89625549    6.05792981   -1.38119879
 C                  4.79124064    0.99640795    1.85197032
 H                  4.99289867   -2.37662918    2.31629517
 H                  0.98544414    0.22351188    1.88169258

 1 6 1.0 7 1.0
 2 10 1.0 16 1.0
 3 7 1.5 15 1.5 26 1.5
 4 11 1.0 13 1.5 16 1.5
 5 15 1.5 17 1.5 27 1.5
 6 9 1.5 13 1.5
 7 23 1.5
 8 15 1.5 19 1.5 29 1.5
 9 14 1.5 26 1.0
 10 12 1.5 36 1.5
 11 12 1.5 34 1.5
 12 25 1.5
 13 31 1.0
 14 16 1.5 33 1.0
 15
 16
 17 18 1.0 23 2.0
 18
 19 20 1.0 21 2.0
 20
 21 22 1.0 26 1.5
 22
 23 24 1.0
 24
 25 32 1.5 46 1.5
 26
 27 28 1.0 40 1.5
 28
 29 30 1.0 40 1.5
 30
 31 49 1.5 51 1.5
 32 38 1.5 47 1.5
 33 44 1.5 61 1.5
 34 35 1.0 47 2.0
 35
 36 37 1.0 42 2.0
 37
 38 39 1.0 63 1.5
 39
 40 41 1.0
 41
 42 43 1.0 46 1.5
 43
 44 45 1.0 59 1.5
 45
 46 53 1.5
 47 48 1.0
 48
 49 50 1.0 55 1.5
 50
 51 52 1.0 65 1.5
 52
 53 54 1.0 63 1.5
 54
 55 56 1.0 57 1.5
 56
 57 58 1.0 65 1.5
 58
 59 60 1.0 67 1.5
 60
 61 62 1.0 69 1.5
 62
 63 64 1.0
 64
 65 66 1.0
 66
 67 68 1.0 69 1.5
 68
 69 70 1.0
 70
 71 76 1.0 77 1.0
 72 80 1.0 86 1.0
 73 77 1.5 85 1.5 95 1.5
 74 81 1.0 83 1.5 86 1.5
 75 85 1.5 87 1.5 96 1.5
 76 79 1.5 83 1.5
 77 93 1.5
 78 85 1.5 89 1.5 98 1.5
 79 84 1.5 95 1.0
 80 82 1.5 105 1.5
 81 82 1.5 103 1.5
 82 140 1.5
 83 100 1.0
 84 86 1.5 102 1.0
 85
 86
 87 88 1.0 93 2.0
 88
 89 90 1.0 91 2.0
 90
 91 92 1.0 95 1.5
 92
 93 94 1.0
 94
 95
 96 97 1.0 109 1.5
 97
 98 99 1.0 109 1.5
 99
 100 118 1.5 120 1.5
 101 107 1.5 116 1.5 140 1.5
 102 113 1.5 130 1.5
 103 104 1.0 116 2.0
 104
 105 106 1.0 111 2.0
 106
 107 108 1.0 132 1.5
 108
 109 110 1.0
 110
 111 112 1.0 115 1.5
 112
 113 114 1.0 128 1.5
 114
 115 122 1.5 140 1.5
 116 117 1.0
 117
 118 119 1.0 124 1.5
 119
 120 121 1.0 134 1.5
 121
 122 123 1.0 132 1.5
 123
 124 125 1.0 126 1.5
 125
 126 127 1.0 134 1.5
 127
 128 129 1.0 136 1.5
 129
 130 131 1.0 138 1.5
 131
 132 133 1.0
 133
 134 135 1.0
 135
 136 137 1.0 138 1.5
 137
 138 139 1.0
 139
 140



























































