%chk=/oasis/projects/nsf/lhu120/cmw414/pent_y_stack/0_4A/dimer/dimer.chk
%nprocshared=24
%mem=110GB
#p b3lyp/6-311g(d,p) nosymm pop=full iop(3/33=1) punch=mo

c47

0 1
 C                 -8.55050155   -6.94087689    3.60767456
 C                 -8.52250155   -6.08487689    2.55167456
 C                 -7.90150155   -6.40287689    1.31667456
 C                 -7.88650155   -5.50387689    0.23167456
 C                 -7.23150155   -5.83687689   -0.98632544
 C                 -7.18250155   -4.97287689   -2.06832544
 C                 -6.63450155   -7.18087689   -1.12032544
 C                 -6.74950155   -8.02487689   -0.06232544
 C                 -7.27050155   -7.72087689    1.18267456
 C                 -7.39650155   -8.58987689    2.27367456
 C                 -7.90850155   -8.27287689    3.47867456
 H                 -9.04050155   -6.62187689    4.67467456
 H                 -8.93150155   -5.06087689    2.64467456
 H                 -8.32050155   -4.49087689    0.36767456
 H                 -7.64950155   -3.95487689   -1.92332544
 H                 -6.29150155   -9.03587689   -0.15432544
 H                 -6.93950155   -9.59587689    2.19467456
 H                 -7.91950155   -8.95187689    4.35567456
 C                 -6.58250155   -5.29187689   -3.30632544
 C                 -6.03450155   -7.49987689   -2.35832544
 C                 -5.98450155   -6.63687689   -3.44032544
 C                 -6.46750155   -4.44887689   -4.36432544
 H                 -5.56650155   -8.51887689   -2.50332544
 C                 -5.33050155   -6.96987689   -4.65832544
 C                 -5.94550155   -4.75287689   -5.60932544
 H                 -6.92550155   -3.43787689   -4.27232544
 C                 -5.31550155   -6.07087689   -5.74332544
 H                 -4.89650155   -7.98187689   -4.79432544
 C                 -5.82050155   -3.88387689   -6.70032544
 C                 -4.69450155   -6.38787689   -6.97832544
 C                 -5.30850155   -4.20087689   -7.90532544
 H                 -6.27750155   -2.87787689   -6.62132544
 C                 -4.66650155   -5.53287689   -8.03432544
 H                 -4.28550155   -7.41287689   -7.07132544
 H                 -5.29650155   -3.52187689   -8.78232544
 H                 -4.17650155   -5.85187689   -9.10132544
 C                 -5.55955519   -5.28557798    4.80563065
 C                 -5.53155519   -4.42957798    3.74963065
 C                 -4.91055519   -4.74757798    2.51463065
 C                 -4.89555519   -3.84857798    1.42963065
 C                 -4.24055519   -4.18157798    0.21163065
 C                 -4.19155519   -3.31757798   -0.87036935
 C                 -3.64355519   -5.52557798    0.07763065
 C                 -3.75855519   -6.36957798    1.13563065
 C                 -4.27955519   -6.06557798    2.38063065
 C                 -4.40555519   -6.93457798    3.47163065
 C                 -4.91755519   -6.61757798    4.67663065
 H                 -6.04955519   -4.96657798    5.87263065
 H                 -5.94055519   -3.40557798    3.84263065
 H                 -5.32955519   -2.83557798    1.56563065
 H                 -4.65855519   -2.29957798   -0.72536935
 H                 -3.30055519   -7.38057798    1.04363065
 H                 -3.94855519   -7.94057798    3.39263065
 H                 -4.92855519   -7.29657798    5.55363065
 C                 -3.59155519   -3.63657798   -2.10836935
 C                 -3.04355519   -5.84457798   -1.16036935
 C                 -2.99355519   -4.98157798   -2.24236935
 C                 -3.47655519   -2.79357798   -3.16636935
 H                 -2.57555519   -6.86357798   -1.30536935
 C                 -2.33955519   -5.31457798   -3.46036935
 C                 -2.95455519   -3.09757798   -4.41136935
 H                 -3.93455519   -1.78257798   -3.07436935
 C                 -2.32455519   -4.41557798   -4.54536935
 H                 -1.90555519   -6.32657798   -3.59636935
 C                 -2.82955519   -2.22857798   -5.50236935
 C                 -1.70355519   -4.73257798   -5.78036935
 C                 -2.31755519   -2.54557798   -6.70736935
 H                 -3.28655519   -1.22257798   -5.42336935
 C                 -1.67555519   -3.87757798   -6.83636935
 H                 -1.29455519   -5.75757798   -5.87336935
 H                 -2.30555519   -1.86657798   -7.58436935
 H                 -1.18555519   -4.19657798   -7.90336935

 1 2 2.0 11 1.0 12 1.0
 2 3 1.5 13 1.0
 3 4 1.5 9 1.0
 4 5 1.5 14 1.0
 5 6 2.0 7 1.0
 6 15 1.0 19 1.5
 7 8 2.0 20 1.5
 8 9 2.0 16 1.0
 9 10 1.5
 10 11 2.0 17 1.0
 11 18 1.0
 12
 13
 14
 15
 16
 17
 18
 19 21 1.0 22 2.0
 20 21 2.0 23 1.0
 21 24 1.5
 22 25 2.0 26 1.0
 23
 24 27 1.5 28 1.0
 25 27 1.0 29 1.5
 26
 27 30 1.5
 28
 29 31 2.0 32 1.0
 30 33 2.0 34 1.0
 31 33 1.0 35 1.0
 32
 33 36 1.0
 34
 35
 36
 37 38 2.0 47 1.0 48 1.0
 38 39 1.5 49 1.0
 39 40 1.5 45 1.0
 40 41 1.5 50 1.0
 41 42 2.0 43 1.0
 42 51 1.0 55 1.5
 43 44 2.0 56 1.5
 44 45 2.0 52 1.0
 45 46 1.5
 46 47 2.0 53 1.0
 47 54 1.0
 48
 49
 50
 51
 52
 53
 54
 55 57 1.0 58 2.0
 56 57 2.0 59 1.0
 57 60 1.5
 58 61 2.0 62 1.0
 59
 60 63 1.5 64 1.0
 61 63 1.0 65 1.5
 62
 63 66 1.5
 64
 65 67 2.0 68 1.0
 66 69 2.0 70 1.0
 67 69 1.0 71 1.0
 68
 69 72 1.0
 70
 71
 72


