%chk=/oasis/projects/nsf/lhu120/cmw414/rc_slip_x_new/1_6A/dimer/dimer.chk
%nprocshared=24
%mem=110GB
#p b3lyp/6-311g(d,p) nosymm pop=full iop(3/33=1) punch=mo

c47

2 1
 O                  1.86343256   -2.18814168   -0.63312396
 O                 -1.87688744    1.76594132   -0.63317696
 C                  3.69461456   -0.67140268   -0.87047896
 C                 -1.39648944   -0.60712468   -0.87219696
 C                  5.97175156   -1.62878468   -0.73581696
 C                  0.95630456   -1.17504168   -0.77241696
 C                  3.19421256   -1.96292068   -0.63793396
 C                  5.65376956    0.77013232   -1.23999596
 C                  1.38305156    0.18492932   -0.87218096
 C                 -3.20766744    1.54071032   -0.63799196
 C                 -2.81321944   -0.85705968   -1.03609996
 C                 -3.70805744    0.24918032   -0.87049696
 C                 -0.37497644   -1.59266368   -0.78251796
 C                  0.36153156    1.17047132   -0.78252296
 C                  5.10807156   -0.51188368   -0.94441996
 C                 -0.96975044    0.75284632   -0.77244796
 C                  5.39488456   -2.90675768   -0.47207296
 H                  6.04966056   -3.75780568   -0.31297796
 C                  4.74462556    1.84550032   -1.48258496
 H                  5.14791656    2.81613132   -1.75583896
 C                  3.38157356    1.68676032   -1.38711396
 H                  2.74968056    2.53497832   -1.59754396
 C                  4.02720956   -3.07643968   -0.43155996
 H                  3.57365556   -4.04439768   -0.25108496
 C                 -5.12151244    0.08963932   -0.94441896
 C                  2.79978656    0.43484332   -1.03611196
 C                  7.36964356   -1.42936968   -0.80567596
 H                  8.03205756   -2.27390668   -0.64047896
 C                  7.05237556    0.92132132   -1.30766596
 H                  7.47035056    1.89702532   -1.53701096
 C                 -0.64793744   -3.04866968   -0.59509396
 C                 -5.66719544   -1.19239768   -1.23993096
 C                  0.63446856    2.62647732   -0.59506596
 C                 -3.39498944   -2.10900768   -1.38701396
 H                 -2.76308144   -2.95723068   -1.59738596
 C                 -4.04067744    2.65422632   -0.43164996
 H                 -3.58713344    3.62219432   -0.25120396
 C                 -7.06580044   -1.34360768   -1.30758296
 H                 -7.48376544   -2.31932768   -1.53687896
 C                  7.89727656   -0.17032768   -1.08596396
 H                  8.97295756   -0.03707868   -1.13791896
 C                 -5.40835044    2.48452732   -0.47215796
 H                 -6.06313544    3.33557232   -0.31308796
 C                  1.19132356    3.07285032    0.61237504
 H                  1.43075056    2.35253132    1.38925504
 C                 -5.98520444    1.20653832   -0.73585396
 C                 -4.75804044   -2.26777068   -1.48246496
 H                 -5.16132144   -3.23842268   -1.75565596
 C                 -1.20495544   -3.49503768    0.61227204
 H                 -1.44447744   -2.77471768    1.38912204
 C                 -0.33428944   -3.98126668   -1.59421096
 H                  0.10494656   -3.63898068   -2.52632896
 C                 -7.38309444    1.00710232   -0.80569496
 H                 -8.04551744    1.85163832   -0.64052696
 C                 -1.46487044   -4.85334768    0.80924704
 H                 -1.90033044   -5.18805568    1.74603204
 C                 -1.16705344   -5.77762768   -0.19748196
 H                 -1.37357744   -6.83295368   -0.04661296
 C                  1.45120356    4.43116132    0.80938404
 H                  1.88654356    4.76587132    1.74622404
 C                  0.32092856    3.55907532   -1.59421596
 H                 -0.11819244    3.21678732   -2.52638696
 C                 -7.91071344   -0.25195768   -1.08592496
 H                 -8.98639244   -0.38522368   -1.13786596
 C                 -0.59829944   -5.33868768   -1.39838196
 H                 -0.36076744   -6.05187768   -2.18204296
 C                  1.15351056    5.35543932   -0.19738296
 H                  1.36000956    6.41076732   -0.04648696
 C                  0.58490756    4.91649632   -1.39835396
 H                  0.34746656    5.62968632   -2.18204196
 O                 13.81704013   -0.92340196    2.99601396
 O                  9.82060568    2.48987168    1.58079638
 C                 15.54610578    0.52235001    2.20216552
 C                 10.46286628    0.23309034    2.22406484
 C                 17.87976061   -0.16093085    2.65741211
 C                 12.84646791   -0.09639399    2.50336527
 C                 15.12962868   -0.62513491    2.89666051
 C                 17.41006111    1.85864855    1.31175495
 C                 13.18268605    1.15822243    1.90798136
 C                  8.50817664    2.18806884    1.67119922
 C                  9.06897365   -0.15580445    2.17631791
 C                  8.09938723    0.87018381    1.93305555
 C                 11.54652206   -0.57869575    2.65939434
 C                 12.09606341    2.03571814    1.63949070
 C                 16.94671893    0.73997626    2.06182349
 C                 10.79578380    1.56080582    1.81429091
 C                 17.38557812   -1.28964665    3.37667266
 H                 18.09321136   -1.97628743    3.83066072
 C                 16.43500868    2.70545312    0.70019682
 H                 16.77678696    3.53361452    0.08637908
 C                 15.08427276    2.49988627    0.85981694
 H                 14.40050483    3.16665773    0.35889723
 C                 16.03187065   -1.52581938    3.48921911
 H                 15.64130127   -2.38893215    4.01620778
 C                 14.58199544    1.42698288    1.65074709
 C                 19.26210435    0.09414743    2.50638383
 H                 19.97682023   -0.58369329    2.96359084
 C                 18.79631355    2.06982673    1.18043837
 H                 19.15167612    2.91978793    0.60547409
 C                 11.36871350   -1.87978907    3.37011875
 C                  6.24764692   -0.73689793    2.13602461
 C                 12.26766122    3.47416258    1.27752389
 C                  8.57829937   -1.48591065    2.31425636
 H                  9.26902726   -2.30686349    2.42369940
 C                  7.59911070    3.23996477    1.46259768
 H                  7.98371302    4.23532408    1.27137561
 C                  4.86363016   -0.99767620    2.14145681
 H                  4.51584778   -2.01569317    2.28974632
 C                 19.70871224    1.19586673    1.77912825
 H                 20.77375315    1.37406451    1.67199447
 C                  6.24674348    2.97409109    1.49977530
 H                  5.53385066    3.77730105    1.34178206
 C                 12.77334112    4.36885978    2.23201584
 H                 13.04765800    4.00146494    3.21664702
 C                  5.76127957    1.65211245    1.72835632
 C                  7.23071684   -1.76145074    2.29626732
 C                 10.82301816   -1.88973098    4.66215740
 H                 10.52296463   -0.95307013    5.12298488
 C                 11.76061304   -3.08979649    2.77965806
 H                 12.19124133   -3.08364590    1.78293674
 C                  4.38124477    1.34583010    1.74942728
 H                  3.66106783    2.14471180    1.59956420
 C                 10.65151840   -3.09577612    5.34582686
 H                 10.22407215   -3.09292649    6.34407662
 C                 11.02719286   -4.30193777    4.74538158
 H                 10.88940897   -5.24007138    5.27457673
 C                 12.93830382    5.71925538    1.91487551
 H                 13.33470907    6.40287738    2.65968737
 C                 11.90884753    3.95203271    0.00896567
 H                 11.50910120    3.26283077   -0.72868916
 C                  3.94390250    0.03872670    1.95523108
 C                 11.58498738   -4.29571671    3.46197329
 H                 11.88269014   -5.22839293    2.99221365
 C                 12.59598272    6.18769829    0.64213507
 H                 12.72876138    7.23639580    0.39367588
 C                 12.07797804    5.30146259   -0.30895332
 H                 11.80623263    5.65988359   -1.29732263
 C                  6.70121778    0.59836173    1.93584648
 H                  6.90287581   -2.77467540    2.40017133
 H                  2.89542128   -0.17453434    1.96556874

 1 6 1.0 7 1.0
 2 10 1.0 16 1.0
 3 7 1.5 15 1.5 26 1.5
 4 11 1.0 13 1.5 16 1.5
 5 15 1.5 17 1.5 27 1.5
 6 9 1.5 13 1.5
 7 23 1.5
 8 15 1.5 19 1.5 29 1.5
 9 14 1.5 26 1.0
 10 12 1.5 36 1.5
 11 12 1.5 34 1.5
 12 25 1.5
 13 31 1.0
 14 16 1.5 33 1.0
 15
 16
 17 18 1.0 23 2.0
 18
 19 20 1.0 21 2.0
 20
 21 22 1.0 26 1.5
 22
 23 24 1.0
 24
 25 32 1.5 46 1.5
 26
 27 28 1.0 40 1.5
 28
 29 30 1.0 40 1.5
 30
 31 49 1.5 51 1.5
 32 38 1.5 47 1.5
 33 44 1.5 61 1.5
 34 35 1.0 47 2.0
 35
 36 37 1.0 42 2.0
 37
 38 39 1.0 63 1.5
 39
 40 41 1.0
 41
 42 43 1.0 46 1.5
 43
 44 45 1.0 59 1.5
 45
 46 53 1.5
 47 48 1.0
 48
 49 50 1.0 55 1.5
 50
 51 52 1.0 65 1.5
 52
 53 54 1.0 63 1.5
 54
 55 56 1.0 57 1.5
 56
 57 58 1.0 65 1.5
 58
 59 60 1.0 67 1.5
 60
 61 62 1.0 69 1.5
 62
 63 64 1.0
 64
 65 66 1.0
 66
 67 68 1.0 69 1.5
 68
 69 70 1.0
 70
 71 76 1.0 77 1.0
 72 80 1.0 86 1.0
 73 77 1.5 85 1.5 95 1.5
 74 81 1.0 83 1.5 86 1.5
 75 85 1.5 87 1.5 96 1.5
 76 79 1.5 83 1.5
 77 93 1.5
 78 85 1.5 89 1.5 98 1.5
 79 84 1.5 95 1.0
 80 82 1.5 105 1.5
 81 82 1.5 103 1.5
 82 140 1.5
 83 100 1.0
 84 86 1.5 102 1.0
 85
 86
 87 88 1.0 93 2.0
 88
 89 90 1.0 91 2.0
 90
 91 92 1.0 95 1.5
 92
 93 94 1.0
 94
 95
 96 97 1.0 109 1.5
 97
 98 99 1.0 109 1.5
 99
 100 118 1.5 120 1.5
 101 107 1.5 116 1.5 140 1.5
 102 113 1.5 130 1.5
 103 104 1.0 116 2.0
 104
 105 106 1.0 111 2.0
 106
 107 108 1.0 132 1.5
 108
 109 110 1.0
 110
 111 112 1.0 115 1.5
 112
 113 114 1.0 128 1.5
 114
 115 122 1.5 140 1.5
 116 117 1.0
 117
 118 119 1.0 124 1.5
 119
 120 121 1.0 134 1.5
 121
 122 123 1.0 132 1.5
 123
 124 125 1.0 126 1.5
 125
 126 127 1.0 134 1.5
 127
 128 129 1.0 136 1.5
 129
 130 131 1.0 138 1.5
 131
 132 133 1.0
 133
 134 135 1.0
 135
 136 137 1.0 138 1.5
 137
 138 139 1.0
 139
 140























