%chk=/oasis/projects/nsf/lhu120/cmw414/pent_slip_x/0_2A/dimer/dimer.chk
%nprocshared=24
%mem=110GB
#p b3lyp/6-311g(d,p) nosymm pop=full iop(3/33=1) punch=mo

c47

0 1
 C                 -8.65941983   -6.53316675    3.45607612
 C                 -8.63141983   -5.67716675    2.40007612
 C                 -8.01041983   -5.99516675    1.16507612
 C                 -7.99541983   -5.09616675    0.08007612
 C                 -7.34041983   -5.42916675   -1.13792388
 C                 -7.29141983   -4.56516675   -2.21992388
 C                 -6.74341983   -6.77316675   -1.27192388
 C                 -6.85841983   -7.61716675   -0.21392388
 C                 -7.37941983   -7.31316675    1.03107612
 C                 -7.50541983   -8.18216675    2.12207612
 C                 -8.01741983   -7.86516675    3.32707612
 H                 -9.14941983   -6.21416675    4.52307612
 H                 -9.04041983   -4.65316675    2.49307612
 H                 -8.42941983   -4.08316675    0.21607612
 H                 -7.75841983   -3.54716675   -2.07492388
 H                 -6.40041983   -8.62816675   -0.30592388
 H                 -7.04841983   -9.18816675    2.04307612
 H                 -8.02841983   -8.54416675    4.20407612
 C                 -6.69141983   -4.88416675   -3.45792388
 C                 -6.14341983   -7.09216675   -2.50992388
 C                 -6.09341983   -6.22916675   -3.59192388
 C                 -6.57641983   -4.04116675   -4.51592388
 H                 -5.67541983   -8.11116675   -2.65492388
 C                 -5.43941983   -6.56216675   -4.80992388
 C                 -6.05441983   -4.34516675   -5.76092388
 H                 -7.03441983   -3.03016675   -4.42392388
 C                 -5.42441983   -5.66316675   -5.89492388
 H                 -5.00541983   -7.57416675   -4.94592388
 C                 -5.92941983   -3.47616675   -6.85192388
 C                 -4.80341983   -5.98016675   -7.12992388
 C                 -5.41741983   -3.79316675   -8.05692388
 H                 -6.38641983   -2.47016675   -6.77292388
 C                 -4.77541983   -5.12516675   -8.18592388
 H                 -4.39441983   -7.00516675   -7.22292388
 H                 -5.40541983   -3.11416675   -8.93392388
 H                 -4.28541983   -5.44416675   -9.25292388
 C                 -5.55955519   -5.28557798    4.80563065
 C                 -5.53155519   -4.42957798    3.74963065
 C                 -4.91055519   -4.74757798    2.51463065
 C                 -4.89555519   -3.84857798    1.42963065
 C                 -4.24055519   -4.18157798    0.21163065
 C                 -4.19155519   -3.31757798   -0.87036935
 C                 -3.64355519   -5.52557798    0.07763065
 C                 -3.75855519   -6.36957798    1.13563065
 C                 -4.27955519   -6.06557798    2.38063065
 C                 -4.40555519   -6.93457798    3.47163065
 C                 -4.91755519   -6.61757798    4.67663065
 H                 -6.04955519   -4.96657798    5.87263065
 H                 -5.94055519   -3.40557798    3.84263065
 H                 -5.32955519   -2.83557798    1.56563065
 H                 -4.65855519   -2.29957798   -0.72536935
 H                 -3.30055519   -7.38057798    1.04363065
 H                 -3.94855519   -7.94057798    3.39263065
 H                 -4.92855519   -7.29657798    5.55363065
 C                 -3.59155519   -3.63657798   -2.10836935
 C                 -3.04355519   -5.84457798   -1.16036935
 C                 -2.99355519   -4.98157798   -2.24236935
 C                 -3.47655519   -2.79357798   -3.16636935
 H                 -2.57555519   -6.86357798   -1.30536935
 C                 -2.33955519   -5.31457798   -3.46036935
 C                 -2.95455519   -3.09757798   -4.41136935
 H                 -3.93455519   -1.78257798   -3.07436935
 C                 -2.32455519   -4.41557798   -4.54536935
 H                 -1.90555519   -6.32657798   -3.59636935
 C                 -2.82955519   -2.22857798   -5.50236935
 C                 -1.70355519   -4.73257798   -5.78036935
 C                 -2.31755519   -2.54557798   -6.70736935
 H                 -3.28655519   -1.22257798   -5.42336935
 C                 -1.67555519   -3.87757798   -6.83636935
 H                 -1.29455519   -5.75757798   -5.87336935
 H                 -2.30555519   -1.86657798   -7.58436935
 H                 -1.18555519   -4.19657798   -7.90336935

 1 2 2.0 11 1.0 12 1.0
 2 3 1.5 13 1.0
 3 4 1.5 9 1.0
 4 5 1.5 14 1.0
 5 6 2.0 7 1.0
 6 15 1.0 19 1.5
 7 8 2.0 20 1.5
 8 9 2.0 16 1.0
 9 10 1.5
 10 11 2.0 17 1.0
 11 18 1.0
 12
 13
 14
 15
 16
 17
 18
 19 21 1.0 22 2.0
 20 21 2.0 23 1.0
 21 24 1.5
 22 25 2.0 26 1.0
 23
 24 27 1.5 28 1.0
 25 27 1.0 29 1.5
 26
 27 30 1.5
 28
 29 31 2.0 32 1.0
 30 33 2.0 34 1.0
 31 33 1.0 35 1.0
 32
 33 36 1.0
 34
 35
 36
 37 38 2.0 47 1.0 48 1.0
 38 39 1.5 49 1.0
 39 40 1.5 45 1.0
 40 41 1.5 50 1.0
 41 42 2.0 43 1.0
 42 51 1.0 55 1.5
 43 44 2.0 56 1.5
 44 45 2.0 52 1.0
 45 46 1.5
 46 47 2.0 53 1.0
 47 54 1.0
 48
 49
 50
 51
 52
 53
 54
 55 57 1.0 58 2.0
 56 57 2.0 59 1.0
 57 60 1.5
 58 61 2.0 62 1.0
 59
 60 63 1.5 64 1.0
 61 63 1.0 65 1.5
 62
 63 66 1.5
 64
 65 67 2.0 68 1.0
 66 69 2.0 70 1.0
 67 69 1.0 71 1.0
 68
 69 72 1.0
 70
 71
 72

