%chk=/oasis/projects/nsf/lhu120/cmw414/pent_slip_x/6_0A/dimer/dimer.chk
%nprocshared=24
%mem=110GB
#p b3lyp/6-311g(d,p) nosymm pop=full iop(3/33=1) punch=mo

c47

0 1
 C                 -7.11439548   -5.26127588   -1.98774545
 C                 -7.08639548   -4.40527588   -3.04374545
 C                 -6.46539548   -4.72327588   -4.27874545
 C                 -6.45039548   -3.82427588   -5.36374545
 C                 -5.79539548   -4.15727588   -6.58174545
 C                 -5.74639548   -3.29327588   -7.66374545
 C                 -5.19839548   -5.50127588   -6.71574545
 C                 -5.31339548   -6.34527588   -5.65774545
 C                 -5.83439548   -6.04127588   -4.41274545
 C                 -5.96039548   -6.91027588   -3.32174545
 C                 -6.47239548   -6.59327588   -2.11674545
 H                 -7.60439548   -4.94227588   -0.92074545
 H                 -7.49539548   -3.38127588   -2.95074545
 H                 -6.88439548   -2.81127588   -5.22774545
 H                 -6.21339548   -2.27527588   -7.51874545
 H                 -4.85539548   -7.35627588   -5.74974545
 H                 -5.50339548   -7.91627588   -3.40074545
 H                 -6.48339548   -7.27227588   -1.23974545
 C                 -5.14639548   -3.61227588   -8.90174545
 C                 -4.59839548   -5.82027588   -7.95374545
 C                 -4.54839548   -4.95727588   -9.03574545
 C                 -5.03139548   -2.76927588   -9.95974545
 H                 -4.13039548   -6.83927588   -8.09874545
 C                 -3.89439548   -5.29027588  -10.25374545
 C                 -4.50939548   -3.07327588  -11.20474545
 H                 -5.48939548   -1.75827588   -9.86774545
 C                 -3.87939548   -4.39127588  -11.33874545
 H                 -3.46039548   -6.30227588  -10.38974545
 C                 -4.38439548   -2.20427588  -12.29574545
 C                 -3.25839548   -4.70827588  -12.57374545
 C                 -3.87239548   -2.52127588  -13.50074545
 H                 -4.84139548   -1.19827588  -12.21674545
 C                 -3.23039548   -3.85327588  -13.62974545
 H                 -2.84939548   -5.73327588  -12.66674545
 H                 -3.86039548   -1.84227588  -14.37774545
 H                 -2.74039548   -4.17227588  -14.69674545
 C                 -5.55955519   -5.28557798    4.80563065
 C                 -5.53155519   -4.42957798    3.74963065
 C                 -4.91055519   -4.74757798    2.51463065
 C                 -4.89555519   -3.84857798    1.42963065
 C                 -4.24055519   -4.18157798    0.21163065
 C                 -4.19155519   -3.31757798   -0.87036935
 C                 -3.64355519   -5.52557798    0.07763065
 C                 -3.75855519   -6.36957798    1.13563065
 C                 -4.27955519   -6.06557798    2.38063065
 C                 -4.40555519   -6.93457798    3.47163065
 C                 -4.91755519   -6.61757798    4.67663065
 H                 -6.04955519   -4.96657798    5.87263065
 H                 -5.94055519   -3.40557798    3.84263065
 H                 -5.32955519   -2.83557798    1.56563065
 H                 -4.65855519   -2.29957798   -0.72536935
 H                 -3.30055519   -7.38057798    1.04363065
 H                 -3.94855519   -7.94057798    3.39263065
 H                 -4.92855519   -7.29657798    5.55363065
 C                 -3.59155519   -3.63657798   -2.10836935
 C                 -3.04355519   -5.84457798   -1.16036935
 C                 -2.99355519   -4.98157798   -2.24236935
 C                 -3.47655519   -2.79357798   -3.16636935
 H                 -2.57555519   -6.86357798   -1.30536935
 C                 -2.33955519   -5.31457798   -3.46036935
 C                 -2.95455519   -3.09757798   -4.41136935
 H                 -3.93455519   -1.78257798   -3.07436935
 C                 -2.32455519   -4.41557798   -4.54536935
 H                 -1.90555519   -6.32657798   -3.59636935
 C                 -2.82955519   -2.22857798   -5.50236935
 C                 -1.70355519   -4.73257798   -5.78036935
 C                 -2.31755519   -2.54557798   -6.70736935
 H                 -3.28655519   -1.22257798   -5.42336935
 C                 -1.67555519   -3.87757798   -6.83636935
 H                 -1.29455519   -5.75757798   -5.87336935
 H                 -2.30555519   -1.86657798   -7.58436935
 H                 -1.18555519   -4.19657798   -7.90336935

 1 2 2.0 11 1.0 12 1.0
 2 3 1.5 13 1.0
 3 4 1.5 9 1.0
 4 5 1.5 14 1.0
 5 6 2.0 7 1.0
 6 15 1.0 19 1.5
 7 8 2.0 20 1.5
 8 9 2.0 16 1.0
 9 10 1.5
 10 11 2.0 17 1.0
 11 18 1.0
 12
 13
 14
 15
 16
 17
 18
 19 21 1.0 22 2.0
 20 21 2.0 23 1.0
 21 24 1.5
 22 25 2.0 26 1.0
 23
 24 27 1.5 28 1.0
 25 27 1.0 29 1.5
 26
 27 30 1.5
 28
 29 31 2.0 32 1.0
 30 33 2.0 34 1.0
 31 33 1.0 35 1.0
 32
 33 36 1.0
 34
 35
 36
 37 38 2.0 47 1.0 48 1.0
 38 39 1.5 49 1.0
 39 40 1.5 45 1.0
 40 41 1.5 50 1.0
 41 42 2.0 43 1.0
 42 51 1.0 55 1.5
 43 44 2.0 56 1.5
 44 45 2.0 52 1.0
 45 46 1.5
 46 47 2.0 53 1.0
 47 54 1.0
 48
 49
 50
 51
 52
 53
 54
 55 57 1.0 58 2.0
 56 57 2.0 59 1.0
 57 60 1.5
 58 61 2.0 62 1.0
 59
 60 63 1.5 64 1.0
 61 63 1.0 65 1.5
 62
 63 66 1.5
 64
 65 67 2.0 68 1.0
 66 69 2.0 70 1.0
 67 69 1.0 71 1.0
 68
 69 72 1.0
 70
 71
 72

