%chk=/home/cmw414/pcpl_transfer_integral/rc_stack/4_0A/dimer/dimer.chk
%nprocshared=20
%mem=110GB
#p b3lyp/6-311g(d,p) nosymm pop=full iop(3/33=1) punch=mo

c47

2 1
 O                  1.85501948   -2.45203128   -1.59764016
 O                 -1.88530052    1.50205172   -1.59769316
 C                  3.68620148   -0.93529228   -1.83499516
 C                 -1.40490252   -0.87101428   -1.83671316
 C                  5.96333848   -1.89267428   -1.70033316
 C                  0.94789148   -1.43893128   -1.73693316
 C                  3.18579948   -2.22681028   -1.60245016
 C                  5.64535648    0.50624272   -2.20451216
 C                  1.37463848   -0.07896028   -1.83669716
 C                 -3.21608052    1.27682072   -1.60250816
 C                 -2.82163252   -1.12094928   -2.00061616
 C                 -3.71647052   -0.01470928   -1.83501316
 C                 -0.38338952   -1.85655328   -1.74703416
 C                  0.35311848    0.90658172   -1.74703916
 C                  5.09965848   -0.77577328   -1.90893616
 C                 -0.97816352    0.48895672   -1.73696416
 C                  5.38647148   -3.17064728   -1.43658916
 H                  6.04124748   -4.02169528   -1.27749416
 C                  4.73621248    1.58161072   -2.44710116
 H                  5.13950348    2.55224172   -2.72035516
 C                  3.37316048    1.42287072   -2.35163016
 H                  2.74126748    2.27108872   -2.56206016
 C                  4.01879648   -3.34032928   -1.39607616
 H                  3.56524248   -4.30828728   -1.21560116
 C                 -5.12992552   -0.17425028   -1.90893516
 C                  2.79137348    0.17095372   -2.00062816
 C                  7.36123048   -1.69325928   -1.77019216
 H                  8.02364448   -2.53779628   -1.60499516
 C                  7.04396248    0.65743172   -2.27218216
 H                  7.46193748    1.63313572   -2.50152716
 C                 -0.65635052   -3.31255928   -1.55961016
 C                 -5.67560852   -1.45628728   -2.20444716
 C                  0.62605548    2.36258772   -1.55958216
 C                 -3.40340252   -2.37289728   -2.35153016
 H                 -2.77149452   -3.22112028   -2.56190216
 C                 -4.04909052    2.39033672   -1.39616616
 H                 -3.59554652    3.35830472   -1.21572016
 C                 -7.07421352   -1.60749728   -2.27209916
 H                 -7.49217852   -2.58321728   -2.50139516
 C                  7.88886348   -0.43421728   -2.05048016
 H                  8.96454448   -0.30096828   -2.10243516
 C                 -5.41676352    2.22063772   -1.43667416
 H                 -6.07154852    3.07168272   -1.27760416
 C                  1.18291048    2.80896072   -0.35214116
 H                  1.42233748    2.08864172    0.42473884
 C                 -5.99361752    0.94264872   -1.70037016
 C                 -4.76645352   -2.53166028   -2.44698116
 H                 -5.16973452   -3.50231228   -2.72017216
 C                 -1.21336852   -3.75892728   -0.35224416
 H                 -1.45289052   -3.03860728    0.42460584
 C                 -0.34270252   -4.24515628   -2.55872716
 H                  0.09653348   -3.90287028   -3.49084516
 C                 -7.39150752    0.74321272   -1.77021116
 H                 -8.05393052    1.58774872   -1.60504316
 C                 -1.47328352   -5.11723728   -0.15526916
 H                 -1.90874352   -5.45194528    0.78151584
 C                 -1.17546652   -6.04151728   -1.16199816
 H                 -1.38199052   -7.09684328   -1.01112916
 C                  1.44279048    4.16727172   -0.15513216
 H                  1.87813048    4.50198172    0.78170784
 C                  0.31251548    3.29518572   -2.55873216
 H                 -0.12660552    2.95289772   -3.49090316
 C                 -7.91912652   -0.51584728   -2.05044116
 H                 -8.99480552   -0.64911328   -2.10238216
 C                 -0.60671252   -5.60257728   -2.36289816
 H                 -0.36918052   -6.31576728   -3.14655916
 C                  1.14509748    5.09154972   -1.16189916
 H                  1.35159648    6.14687772   -1.01100316
 C                  0.57649448    4.65260672   -2.36287016
 H                  0.33905348    5.36579672   -3.14655816
 O                 12.24913308   -1.24197860    3.00929613
 O                  8.25269863    2.17129504    1.59407855
 C                 13.97819873    0.20377337    2.21544769
 C                  8.89495923   -0.08548630    2.23734701
 C                 16.31185356   -0.47950749    2.67069428
 C                 11.27856086   -0.41497063    2.51664744
 C                 13.56172163   -0.94371155    2.90994268
 C                 15.84215406    1.54007191    1.32503712
 C                 11.61477900    0.83964579    1.92126353
 C                  6.94026959    1.86949220    1.68448139
 C                  7.50106660   -0.47438109    2.18960008
 C                  6.53148018    0.55160717    1.94633772
 C                  9.97861501   -0.89727239    2.67267651
 C                 10.52815636    1.71714150    1.65277287
 C                 15.37881188    0.42139962    2.07510566
 C                  9.22787675    1.24222918    1.82757308
 C                 15.81767107   -1.60822329    3.38995483
 H                 16.52530431   -2.29486407    3.84394289
 C                 14.86710163    2.38687648    0.71347899
 H                 15.20887991    3.21503788    0.09966125
 C                 13.51636571    2.18130963    0.87309911
 H                 12.83259778    2.84808109    0.37217940
 C                 14.46396360   -1.84439602    3.50250128
 H                 14.07339422   -2.70750879    4.02948995
 C                 13.01408839    1.10840624    1.66402926
 C                 17.69419730   -0.22442921    2.51966600
 H                 18.40891318   -0.90226993    2.97687301
 C                 17.22840650    1.75125009    1.19372054
 H                 17.58376907    2.60121129    0.61875626
 C                  9.80080645   -2.19836571    3.38340092
 C                  4.67973987   -1.05547457    2.14930678
 C                 10.69975417    3.15558594    1.29080606
 C                  7.01039232   -1.80448729    2.32753853
 H                  7.70112021   -2.62544013    2.43698157
 C                  6.03120365    2.92138813    1.47587985
 H                  6.41580597    3.91674744    1.28465778
 C                  3.29572311   -1.31625284    2.15473898
 H                  2.94794073   -2.33426981    2.30302849
 C                 18.14080519    0.87729009    1.79241042
 H                 19.20584610    1.05548787    1.68527664
 C                  4.67883643    2.65551445    1.51305747
 H                  3.96594361    3.45872441    1.35506423
 C                 11.20543407    4.05028314    2.24529801
 H                 11.47975095    3.68288830    3.22992919
 C                  4.19337252    1.33353581    1.74163849
 C                  5.66280979   -2.08002738    2.30954949
 H                  5.33006108   -3.10841972    2.41500891
 C                  9.25511111   -2.20830762    4.67543957
 H                  8.95505758   -1.27164677    5.13626705
 C                 10.19270599   -3.40837313    2.79294023
 H                 10.62333428   -3.40222254    1.79621891
 C                  2.81333772    1.02725346    1.76270945
 H                  2.09316078    1.82613516    1.61284637
 C                  9.08361135   -3.41435276    5.35910903
 H                  8.65616510   -3.41150313    6.35735879
 C                  9.45928581   -4.62051441    4.75866375
 H                  9.32150192   -5.55864802    5.28785890
 C                 11.37039677    5.40067874    1.92815768
 H                 11.76680202    6.08430074    2.67296954
 C                 10.34094048    3.63345607    0.02224784
 H                  9.94119415    2.94425413   -0.71540699
 C                  2.37599545   -0.27984994    1.96851325
 H                  1.31267231   -0.49612983    1.97899725
 C                 10.01708033   -4.61429335    3.47525546
 H                 10.31478309   -5.54696957    3.00549582
 C                 11.02807567    5.86912165    0.65541724
 H                 11.16085433    6.91781916    0.40695805
 C                 10.51007099    4.98288595   -0.29567115
 H                 10.23832558    5.34130695   -1.28404046
 C                  5.13331073    0.27978509    1.94912865

 1 6 1.0 7 1.0
 2 10 1.0 16 1.0
 3 7 1.5 15 1.5 26 1.5
 4 11 1.0 13 1.5 16 1.5
 5 15 1.5 17 1.5 27 1.5
 6 9 1.5 13 1.5
 7 23 1.5
 8 15 1.5 19 1.5 29 1.5
 9 14 1.5 26 1.0
 10 12 1.5 36 1.5
 11 12 1.5 34 1.5
 12 25 1.5
 13 31 1.0
 14 16 1.5 33 1.0
 15
 16
 17 18 1.0 23 2.0
 18
 19 20 1.0 21 2.0
 20
 21 22 1.0 26 1.5
 22
 23 24 1.0
 24
 25 32 1.5 46 1.5
 26
 27 28 1.0 40 1.5
 28
 29 30 1.0 40 1.5
 30
 31 49 1.5 51 1.5
 32 38 1.5 47 1.5
 33 44 1.5 61 1.5
 34 35 1.0 47 2.0
 35
 36 37 1.0 42 2.0
 37
 38 39 1.0 63 1.5
 39
 40 41 1.0
 41
 42 43 1.0 46 1.5
 43
 44 45 1.0 59 1.5
 45
 46 53 1.5
 47 48 1.0
 48
 49 50 1.0 55 1.5
 50
 51 52 1.0 65 1.5
 52
 53 54 1.0 63 1.5
 54
 55 56 1.0 57 1.5
 56
 57 58 1.0 65 1.5
 58
 59 60 1.0 67 1.5
 60
 61 62 1.0 69 1.5
 62
 63 64 1.0
 64
 65 66 1.0
 66
 67 68 1.0 69 1.5
 68
 69 70 1.0
 70
 71 76 1.0 77 1.0
 72 80 1.0 86 1.0
 73 77 1.5 85 1.5 95 1.5
 74 81 1.0 83 1.5 86 1.5
 75 85 1.5 87 1.5 96 1.5
 76 79 1.5 83 1.5
 77 93 1.5
 78 85 1.5 89 1.5 98 1.5
 79 84 1.5 95 1.0
 80 82 1.5 105 1.5
 81 82 1.5 103 1.5
 82 140 1.5
 83 100 1.0
 84 86 1.5 102 1.0
 85
 86
 87 88 1.0 93 2.0
 88
 89 90 1.0 91 2.0
 90
 91 92 1.0 95 1.5
 92
 93 94 1.0
 94
 95
 96 97 1.0 109 1.5
 97
 98 99 1.0 109 1.5
 99
 100 118 1.5 120 1.5
 101 107 1.5 116 1.5 140 1.5
 102 113 1.5 130 1.5
 103 104 1.0 116 2.0
 104
 105 106 1.0 111 2.0
 106
 107 108 1.0 132 1.5
 108
 109 110 1.0
 110
 111 112 1.0 115 1.5
 112
 113 114 1.0 128 1.5
 114
 115 122 1.5 140 1.5
 116 117 1.0
 117
 118 119 1.0 124 1.5
 119
 120 121 1.0 134 1.5
 121
 122 123 1.0 132 1.5
 123
 124 125 1.0 126 1.5
 125
 126 127 1.0 134 1.5
 127
 128 129 1.0 136 1.5
 129
 130 131 1.0 138 1.5
 131
 132 133 1.0
 133
 134 135 1.0
 135
 136 137 1.0 138 1.5
 137
 138 139 1.0
 139
 140

