%chk=/oasis/projects/nsf/lhu120/cmw414/pent_slip_x/4_0A/dimer/dimer.chk
%nprocshared=24
%mem=110GB
#p b3lyp/6-311g(d,p) nosymm pop=full iop(3/33=1) punch=mo

c47

0 1
 C                 -7.64716251   -5.69985893   -0.11056560
 C                 -7.61916251   -4.84385893   -1.16656560
 C                 -6.99816251   -5.16185893   -2.40156560
 C                 -6.98316251   -4.26285893   -3.48656560
 C                 -6.32816251   -4.59585893   -4.70456560
 C                 -6.27916251   -3.73185893   -5.78656560
 C                 -5.73116251   -5.93985893   -4.83856560
 C                 -5.84616251   -6.78385893   -3.78056560
 C                 -6.36716251   -6.47985893   -2.53556560
 C                 -6.49316251   -7.34885893   -1.44456560
 C                 -7.00516251   -7.03185893   -0.23956560
 H                 -8.13716251   -5.38085893    0.95643440
 H                 -8.02816251   -3.81985893   -1.07356560
 H                 -7.41716251   -3.24985893   -3.35056560
 H                 -6.74616251   -2.71385893   -5.64156560
 H                 -5.38816251   -7.79485893   -3.87256560
 H                 -6.03616251   -8.35485893   -1.52356560
 H                 -7.01616251   -7.71085893    0.63743440
 C                 -5.67916251   -4.05085893   -7.02456560
 C                 -5.13116251   -6.25885893   -6.07656560
 C                 -5.08116251   -5.39585893   -7.15856560
 C                 -5.56416251   -3.20785893   -8.08256560
 H                 -4.66316251   -7.27785893   -6.22156560
 C                 -4.42716251   -5.72885893   -8.37656560
 C                 -5.04216251   -3.51185893   -9.32756560
 H                 -6.02216251   -2.19685893   -7.99056560
 C                 -4.41216251   -4.82985893   -9.46156560
 H                 -3.99316251   -6.74085893   -8.51256560
 C                 -4.91716251   -2.64285893  -10.41856560
 C                 -3.79116251   -5.14685893  -10.69656560
 C                 -4.40516251   -2.95985893  -11.62356560
 H                 -5.37416251   -1.63685893  -10.33956560
 C                 -3.76316251   -4.29185893  -11.75256560
 H                 -3.38216251   -6.17185893  -10.78956560
 H                 -4.39316251   -2.28085893  -12.50056560
 H                 -3.27316251   -4.61085893  -12.81956560
 C                 -5.55955519   -5.28557798    4.80563065
 C                 -5.53155519   -4.42957798    3.74963065
 C                 -4.91055519   -4.74757798    2.51463065
 C                 -4.89555519   -3.84857798    1.42963065
 C                 -4.24055519   -4.18157798    0.21163065
 C                 -4.19155519   -3.31757798   -0.87036935
 C                 -3.64355519   -5.52557798    0.07763065
 C                 -3.75855519   -6.36957798    1.13563065
 C                 -4.27955519   -6.06557798    2.38063065
 C                 -4.40555519   -6.93457798    3.47163065
 C                 -4.91755519   -6.61757798    4.67663065
 H                 -6.04955519   -4.96657798    5.87263065
 H                 -5.94055519   -3.40557798    3.84263065
 H                 -5.32955519   -2.83557798    1.56563065
 H                 -4.65855519   -2.29957798   -0.72536935
 H                 -3.30055519   -7.38057798    1.04363065
 H                 -3.94855519   -7.94057798    3.39263065
 H                 -4.92855519   -7.29657798    5.55363065
 C                 -3.59155519   -3.63657798   -2.10836935
 C                 -3.04355519   -5.84457798   -1.16036935
 C                 -2.99355519   -4.98157798   -2.24236935
 C                 -3.47655519   -2.79357798   -3.16636935
 H                 -2.57555519   -6.86357798   -1.30536935
 C                 -2.33955519   -5.31457798   -3.46036935
 C                 -2.95455519   -3.09757798   -4.41136935
 H                 -3.93455519   -1.78257798   -3.07436935
 C                 -2.32455519   -4.41557798   -4.54536935
 H                 -1.90555519   -6.32657798   -3.59636935
 C                 -2.82955519   -2.22857798   -5.50236935
 C                 -1.70355519   -4.73257798   -5.78036935
 C                 -2.31755519   -2.54557798   -6.70736935
 H                 -3.28655519   -1.22257798   -5.42336935
 C                 -1.67555519   -3.87757798   -6.83636935
 H                 -1.29455519   -5.75757798   -5.87336935
 H                 -2.30555519   -1.86657798   -7.58436935
 H                 -1.18555519   -4.19657798   -7.90336935

 1 2 2.0 11 1.0 12 1.0
 2 3 1.5 13 1.0
 3 4 1.5 9 1.0
 4 5 1.5 14 1.0
 5 6 2.0 7 1.0
 6 15 1.0 19 1.5
 7 8 2.0 20 1.5
 8 9 2.0 16 1.0
 9 10 1.5
 10 11 2.0 17 1.0
 11 18 1.0
 12
 13
 14
 15
 16
 17
 18
 19 21 1.0 22 2.0
 20 21 2.0 23 1.0
 21 24 1.5
 22 25 2.0 26 1.0
 23
 24 27 1.5 28 1.0
 25 27 1.0 29 1.5
 26
 27 30 1.5
 28
 29 31 2.0 32 1.0
 30 33 2.0 34 1.0
 31 33 1.0 35 1.0
 32
 33 36 1.0
 34
 35
 36
 37 38 2.0 47 1.0 48 1.0
 38 39 1.5 49 1.0
 39 40 1.5 45 1.0
 40 41 1.5 50 1.0
 41 42 2.0 43 1.0
 42 51 1.0 55 1.5
 43 44 2.0 56 1.5
 44 45 2.0 52 1.0
 45 46 1.5
 46 47 2.0 53 1.0
 47 54 1.0
 48
 49
 50
 51
 52
 53
 54
 55 57 1.0 58 2.0
 56 57 2.0 59 1.0
 57 60 1.5
 58 61 2.0 62 1.0
 59
 60 63 1.5 64 1.0
 61 63 1.0 65 1.5
 62
 63 66 1.5
 64
 65 67 2.0 68 1.0
 66 69 2.0 70 1.0
 67 69 1.0 71 1.0
 68
 69 72 1.0
 70
 71
 72

