%chk=/oasis/projects/nsf/lhu120/cmw414/pent_stack/8_9A/dimer/dimer.chk
%nprocshared=24
%mem=110GB
#p b3lyp/6-311g(d,p) nosymm pop=full iop(3/33=1) punch=mo

c47

0 1
 C                 -8.71269653   -6.57702505    3.64379411
 C                 -8.68469653   -5.72102505    2.58779411
 C                 -8.06369653   -6.03902505    1.35279411
 C                 -8.04869653   -5.14002505    0.26779411
 C                 -7.39369653   -5.47302505   -0.95020589
 C                 -7.34469653   -4.60902505   -2.03220589
 C                 -6.79669653   -6.81702505   -1.08420589
 C                 -6.91169653   -7.66102505   -0.02620589
 C                 -7.43269653   -7.35702505    1.21879411
 C                 -7.55869653   -8.22602505    2.30979411
 C                 -8.07069653   -7.90902505    3.51479411
 H                 -9.20269653   -6.25802505    4.71079411
 H                 -9.09369653   -4.69702505    2.68079411
 H                 -8.48269653   -4.12702505    0.40379411
 H                 -7.81169653   -3.59102505   -1.88720589
 H                 -6.45369653   -8.67202505   -0.11820589
 H                 -7.10169653   -9.23202505    2.23079411
 H                 -8.08169653   -8.58802505    4.39179411
 C                 -6.74469653   -4.92802505   -3.27020589
 C                 -6.19669653   -7.13602505   -2.32220589
 C                 -6.14669653   -6.27302505   -3.40420589
 C                 -6.62969653   -4.08502505   -4.32820589
 H                 -5.72869653   -8.15502505   -2.46720589
 C                 -5.49269653   -6.60602505   -4.62220589
 C                 -6.10769653   -4.38902505   -5.57320589
 H                 -7.08769653   -3.07402505   -4.23620589
 C                 -5.47769653   -5.70702505   -5.70720589
 H                 -5.05869653   -7.61802505   -4.75820589
 C                 -5.98269653   -3.52002505   -6.66420589
 C                 -4.85669653   -6.02402505   -6.94220589
 C                 -5.47069653   -3.83702505   -7.86920589
 H                 -6.43969653   -2.51402505   -6.58520589
 C                 -4.82869653   -5.16902505   -7.99820589
 H                 -4.44769653   -7.04902505   -7.03520589
 H                 -5.45869653   -3.15802505   -8.74620589
 H                 -4.33869653   -5.48802505   -9.06520589
 C                 -0.91743343   -3.38428213    6.51611112
 C                 -0.88943343   -2.52828213    5.46011112
 C                 -0.26843343   -2.84628213    4.22511112
 C                 -0.25343343   -1.94728213    3.14011112
 C                  0.40156657   -2.28028213    1.92211112
 C                  0.45056657   -1.41628213    0.84011112
 C                  0.99856657   -3.62428213    1.78811112
 C                  0.88356657   -4.46828213    2.84611112
 C                  0.36256657   -4.16428213    4.09111112
 C                  0.23656657   -5.03328213    5.18211112
 C                 -0.27543343   -4.71628213    6.38711112
 H                 -1.40743343   -3.06528213    7.58311112
 H                 -1.29843343   -1.50428213    5.55311112
 H                 -0.68743343   -0.93428213    3.27611112
 H                 -0.01643343   -0.39828213    0.98511112
 H                  1.34156657   -5.47928213    2.75411112
 H                  0.69356657   -6.03928213    5.10311112
 H                 -0.28643343   -5.39528213    7.26411112
 C                  1.05056657   -1.73528213   -0.39788888
 C                  1.59856657   -3.94328213    0.55011112
 C                  1.64856657   -3.08028213   -0.53188888
 C                  1.16556657   -0.89228213   -1.45588888
 H                  2.06656657   -4.96228213    0.40511112
 C                  2.30256657   -3.41328213   -1.74988888
 C                  1.68756657   -1.19628213   -2.70088888
 H                  0.70756657    0.11871787   -1.36388888
 C                  2.31756657   -2.51428213   -2.83488888
 H                  2.73656657   -4.42528213   -1.88588888
 C                  1.81256657   -0.32728213   -3.79188888
 C                  2.93856657   -2.83128213   -4.06988888
 C                  2.32456657   -0.64428213   -4.99688888
 H                  1.35556657    0.67871787   -3.71288888
 C                  2.96656657   -1.97628213   -5.12588888
 H                  3.34756657   -3.85628213   -4.16288888
 H                  2.33656657    0.03471787   -5.87388888
 H                  3.45656657   -2.29528213   -6.19288888

 1 2 2.0 11 1.0 12 1.0
 2 3 1.5 13 1.0
 3 4 1.5 9 1.0
 4 5 1.5 14 1.0
 5 6 2.0 7 1.0
 6 15 1.0 19 1.5
 7 8 2.0 20 1.5
 8 9 2.0 16 1.0
 9 10 1.5
 10 11 2.0 17 1.0
 11 18 1.0
 12
 13
 14
 15
 16
 17
 18
 19 21 1.0 22 2.0
 20 21 2.0 23 1.0
 21 24 1.5
 22 25 2.0 26 1.0
 23
 24 27 1.5 28 1.0
 25 27 1.0 29 1.5
 26
 27 30 1.5
 28
 29 31 2.0 32 1.0
 30 33 2.0 34 1.0
 31 33 1.0 35 1.0
 32
 33 36 1.0
 34
 35
 36
 37 38 2.0 47 1.0 48 1.0
 38 39 1.5 49 1.0
 39 40 1.5 45 1.0
 40 41 1.5 50 1.0
 41 42 2.0 43 1.0
 42 51 1.0 55 1.5
 43 44 2.0 56 1.5
 44 45 2.0 52 1.0
 45 46 1.5
 46 47 2.0 53 1.0
 47 54 1.0
 48
 49
 50
 51
 52
 53
 54
 55 57 1.0 58 2.0
 56 57 2.0 59 1.0
 57 60 1.5
 58 61 2.0 62 1.0
 59
 60 63 1.5 64 1.0
 61 63 1.0 65 1.5
 62
 63 66 1.5
 64
 65 67 2.0 68 1.0
 66 69 2.0 70 1.0
 67 69 1.0 71 1.0
 68
 69 72 1.0
 70
 71
 72


