%chk=/oasis/projects/nsf/lhu120/cmw414/pent_slip_x/n_0_2A/dimer/dimer.chk
%nprocshared=24
%mem=110GB
#p b3lyp/6-311g(d,p) nosymm pop=full iop(3/33=1) punch=mo

c47

0 1
 C                 -8.76597327   -6.62088333    3.83151209
 C                 -8.73797327   -5.76488333    2.77551209
 C                 -8.11697327   -6.08288333    1.54051209
 C                 -8.10197327   -5.18388333    0.45551209
 C                 -7.44697327   -5.51688333   -0.76248791
 C                 -7.39797327   -4.65288333   -1.84448791
 C                 -6.84997327   -6.86088333   -0.89648791
 C                 -6.96497327   -7.70488333    0.16151209
 C                 -7.48597327   -7.40088333    1.40651209
 C                 -7.61197327   -8.26988333    2.49751209
 C                 -8.12397327   -7.95288333    3.70251209
 H                 -9.25597327   -6.30188333    4.89851209
 H                 -9.14697327   -4.74088333    2.86851209
 H                 -8.53597327   -4.17088333    0.59151209
 H                 -7.86497327   -3.63488333   -1.69948791
 H                 -6.50697327   -8.71588333    0.06951209
 H                 -7.15497327   -9.27588333    2.41851209
 H                 -8.13497327   -8.63188333    4.57951209
 C                 -6.79797327   -4.97188333   -3.08248791
 C                 -6.24997327   -7.17988333   -2.13448791
 C                 -6.19997327   -6.31688333   -3.21648791
 C                 -6.68297327   -4.12888333   -4.14048791
 H                 -5.78197327   -8.19888333   -2.27948791
 C                 -5.54597327   -6.64988333   -4.43448791
 C                 -6.16097327   -4.43288333   -5.38548791
 H                 -7.14097327   -3.11788333   -4.04848791
 C                 -5.53097327   -5.75088333   -5.51948791
 H                 -5.11197327   -7.66188333   -4.57048791
 C                 -6.03597327   -3.56388333   -6.47648791
 C                 -4.90997327   -6.06788333   -6.75448791
 C                 -5.52397327   -3.88088333   -7.68148791
 H                 -6.49297327   -2.55788333   -6.39748791
 C                 -4.88197327   -5.21288333   -7.81048791
 H                 -4.50097327   -7.09288333   -6.84748791
 H                 -5.51197327   -3.20188333   -8.55848791
 H                 -4.39197327   -5.53188333   -8.87748791
 C                 -5.55955519   -5.28557798    4.80563065
 C                 -5.53155519   -4.42957798    3.74963065
 C                 -4.91055519   -4.74757798    2.51463065
 C                 -4.89555519   -3.84857798    1.42963065
 C                 -4.24055519   -4.18157798    0.21163065
 C                 -4.19155519   -3.31757798   -0.87036935
 C                 -3.64355519   -5.52557798    0.07763065
 C                 -3.75855519   -6.36957798    1.13563065
 C                 -4.27955519   -6.06557798    2.38063065
 C                 -4.40555519   -6.93457798    3.47163065
 C                 -4.91755519   -6.61757798    4.67663065
 H                 -6.04955519   -4.96657798    5.87263065
 H                 -5.94055519   -3.40557798    3.84263065
 H                 -5.32955519   -2.83557798    1.56563065
 H                 -4.65855519   -2.29957798   -0.72536935
 H                 -3.30055519   -7.38057798    1.04363065
 H                 -3.94855519   -7.94057798    3.39263065
 H                 -4.92855519   -7.29657798    5.55363065
 C                 -3.59155519   -3.63657798   -2.10836935
 C                 -3.04355519   -5.84457798   -1.16036935
 C                 -2.99355519   -4.98157798   -2.24236935
 C                 -3.47655519   -2.79357798   -3.16636935
 H                 -2.57555519   -6.86357798   -1.30536935
 C                 -2.33955519   -5.31457798   -3.46036935
 C                 -2.95455519   -3.09757798   -4.41136935
 H                 -3.93455519   -1.78257798   -3.07436935
 C                 -2.32455519   -4.41557798   -4.54536935
 H                 -1.90555519   -6.32657798   -3.59636935
 C                 -2.82955519   -2.22857798   -5.50236935
 C                 -1.70355519   -4.73257798   -5.78036935
 C                 -2.31755519   -2.54557798   -6.70736935
 H                 -3.28655519   -1.22257798   -5.42336935
 C                 -1.67555519   -3.87757798   -6.83636935
 H                 -1.29455519   -5.75757798   -5.87336935
 H                 -2.30555519   -1.86657798   -7.58436935
 H                 -1.18555519   -4.19657798   -7.90336935

 1 2 2.0 11 1.0 12 1.0
 2 3 1.5 13 1.0
 3 4 1.5 9 1.0
 4 5 1.5 14 1.0
 5 6 2.0 7 1.0
 6 15 1.0 19 1.5
 7 8 2.0 20 1.5
 8 9 2.0 16 1.0
 9 10 1.5
 10 11 2.0 17 1.0
 11 18 1.0
 12
 13
 14
 15
 16
 17
 18
 19 21 1.0 22 2.0
 20 21 2.0 23 1.0
 21 24 1.5
 22 25 2.0 26 1.0
 23
 24 27 1.5 28 1.0
 25 27 1.0 29 1.5
 26
 27 30 1.5
 28
 29 31 2.0 32 1.0
 30 33 2.0 34 1.0
 31 33 1.0 35 1.0
 32
 33 36 1.0
 34
 35
 36
 37 38 2.0 47 1.0 48 1.0
 38 39 1.5 49 1.0
 39 40 1.5 45 1.0
 40 41 1.5 50 1.0
 41 42 2.0 43 1.0
 42 51 1.0 55 1.5
 43 44 2.0 56 1.5
 44 45 2.0 52 1.0
 45 46 1.5
 46 47 2.0 53 1.0
 47 54 1.0
 48
 49
 50
 51
 52
 53
 54
 55 57 1.0 58 2.0
 56 57 2.0 59 1.0
 57 60 1.5
 58 61 2.0 62 1.0
 59
 60 63 1.5 64 1.0
 61 63 1.0 65 1.5
 62
 63 66 1.5
 64
 65 67 2.0 68 1.0
 66 69 2.0 70 1.0
 67 69 1.0 71 1.0
 68
 69 72 1.0
 70
 71
 72

