%%chk=/home/cmw414/pcpl_transfer_integral/rc_stack/8_9A/dimer/dimer.chk
%nprocshared=20
%mem=110GB
#p b3lyp/6-311g(d,p) nosymm pop=full iop(3/33=1) punch=mo

c47

2 1
 O                  1.81379548   -3.74509028   -6.32376955
 O                 -1.92652452    0.20899272   -6.32382255
 C                  3.64497748   -2.22835128   -6.56112455
 C                 -1.44612652   -2.16407328   -6.56284255
 C                  5.92211448   -3.18573328   -6.42646255
 C                  0.90666748   -2.73199028   -6.46306255
 C                  3.14457548   -3.51986928   -6.32857955
 C                  5.60413248   -0.78681628   -6.93064155
 C                  1.33341448   -1.37201928   -6.56282655
 C                 -3.25730452   -0.01623828   -6.32863755
 C                 -2.86285652   -2.41400828   -6.72674555
 C                 -3.75769452   -1.30776828   -6.56114255
 C                 -0.42461352   -3.14961228   -6.47316355
 C                  0.31189448   -0.38647728   -6.47316855
 C                  5.05843448   -2.06883228   -6.63506555
 C                 -1.01938752   -0.80410228   -6.46309355
 C                  5.34524748   -4.46370628   -6.16271855
 H                  6.00002348   -5.31475428   -6.00362355
 C                  4.69498848    0.28855172   -7.17323055
 H                  5.09827948    1.25918272   -7.44648455
 C                  3.33193648    0.12981172   -7.07775955
 H                  2.70004348    0.97802972   -7.28818955
 C                  3.97757248   -4.63338828   -6.12220555
 H                  3.52401848   -5.60134628   -5.94173055
 C                 -5.17114952   -1.46730928   -6.63506455
 C                  2.75014948   -1.12210528   -6.72675755
 C                  7.32000648   -2.98631828   -6.49632155
 H                  7.98242048   -3.83085528   -6.33112455
 C                  7.00273848   -0.63562728   -6.99831155
 H                  7.42071348    0.34007672   -7.22765655
 C                 -0.69757452   -4.60561828   -6.28573955
 C                 -5.71683252   -2.74934628   -6.93057655
 C                  0.58483148    1.06952872   -6.28571155
 C                 -3.44462652   -3.66595628   -7.07765955
 H                 -2.81271852   -4.51417928   -7.28803155
 C                 -4.09031452    1.09727772   -6.12229555
 H                 -3.63677052    2.06524572   -5.94184955
 C                 -7.11543752   -2.90055628   -6.99822855
 H                 -7.53340252   -3.87627628   -7.22752455
 C                  7.84763948   -1.72727628   -6.77660955
 H                  8.92332048   -1.59402728   -6.82856455
 C                 -5.45798752    0.92757872   -6.16280355
 H                 -6.11277252    1.77862372   -6.00373355
 C                  1.14168648    1.51590172   -5.07827055
 H                  1.38111348    0.79558272   -4.30139055
 C                 -6.03484152   -0.35041028   -6.42649955
 C                 -4.80767752   -3.82471928   -7.17311055
 H                 -5.21095852   -4.79537128   -7.44630155
 C                 -1.25459252   -5.05198628   -5.07837355
 H                 -1.49411452   -4.33166628   -4.30152355
 C                 -0.38392652   -5.53821528   -7.28485655
 H                  0.05530948   -5.19592928   -8.21697455
 C                 -7.43273152   -0.54984628   -6.49634055
 H                 -8.09515452    0.29468972   -6.33117255
 C                 -1.51450752   -6.41029628   -4.88139855
 H                 -1.94996752   -6.74500428   -3.94461355
 C                 -1.21669052   -7.33457628   -5.88812755
 H                 -1.42321452   -8.38990228   -5.73725855
 C                  1.40156648    2.87421272   -4.88126155
 H                  1.83690648    3.20892272   -3.94442155
 C                  0.27129148    2.00212672   -7.28486155
 H                 -0.16782952    1.65983872   -8.21703255
 C                 -7.96035052   -1.80890628   -6.77657055
 H                 -9.03602952   -1.94217228   -6.82851155
 C                 -0.64793652   -6.89563628   -7.08902755
 H                 -0.41040452   -7.60882628   -7.87268855
 C                  1.10387348    3.79849072   -5.88802855
 H                  1.31037248    4.85381872   -5.73713255
 C                  0.53527048    3.35954772   -7.08899955
 H                  0.29782948    4.07273772   -7.87268755
 O                 12.24913308   -1.24197860    3.00929613
 O                  8.25269863    2.17129504    1.59407855
 C                 13.97819873    0.20377337    2.21544769
 C                  8.89495923   -0.08548630    2.23734701
 C                 16.31185356   -0.47950749    2.67069428
 C                 11.27856086   -0.41497063    2.51664744
 C                 13.56172163   -0.94371155    2.90994268
 C                 15.84215406    1.54007191    1.32503712
 C                 11.61477900    0.83964579    1.92126353
 C                  6.94026959    1.86949220    1.68448139
 C                  7.50106660   -0.47438109    2.18960008
 C                  6.53148018    0.55160717    1.94633772
 C                  9.97861501   -0.89727239    2.67267651
 C                 10.52815636    1.71714150    1.65277287
 C                 15.37881188    0.42139962    2.07510566
 C                  9.22787675    1.24222918    1.82757308
 C                 15.81767107   -1.60822329    3.38995483
 H                 16.52530431   -2.29486407    3.84394289
 C                 14.86710163    2.38687648    0.71347899
 H                 15.20887991    3.21503788    0.09966125
 C                 13.51636571    2.18130963    0.87309911
 H                 12.83259778    2.84808109    0.37217940
 C                 14.46396360   -1.84439602    3.50250128
 H                 14.07339422   -2.70750879    4.02948995
 C                 13.01408839    1.10840624    1.66402926
 C                 17.69419730   -0.22442921    2.51966600
 H                 18.40891318   -0.90226993    2.97687301
 C                 17.22840650    1.75125009    1.19372054
 H                 17.58376907    2.60121129    0.61875626
 C                  9.80080645   -2.19836571    3.38340092
 C                  4.67973987   -1.05547457    2.14930678
 C                 10.69975417    3.15558594    1.29080606
 C                  7.01039232   -1.80448729    2.32753853
 H                  7.70112021   -2.62544013    2.43698157
 C                  6.03120365    2.92138813    1.47587985
 H                  6.41580597    3.91674744    1.28465778
 C                  3.29572311   -1.31625284    2.15473898
 H                  2.94794073   -2.33426981    2.30302849
 C                 18.14080519    0.87729009    1.79241042
 H                 19.20584610    1.05548787    1.68527664
 C                  4.67883643    2.65551445    1.51305747
 H                  3.96594361    3.45872441    1.35506423
 C                 11.20543407    4.05028314    2.24529801
 H                 11.47975095    3.68288830    3.22992919
 C                  4.19337252    1.33353581    1.74163849
 C                  5.66280979   -2.08002738    2.30954949
 H                  5.33006108   -3.10841972    2.41500891
 C                  9.25511111   -2.20830762    4.67543957
 H                  8.95505758   -1.27164677    5.13626705
 C                 10.19270599   -3.40837313    2.79294023
 H                 10.62333428   -3.40222254    1.79621891
 C                  2.81333772    1.02725346    1.76270945
 H                  2.09316078    1.82613516    1.61284637
 C                  9.08361135   -3.41435276    5.35910903
 H                  8.65616510   -3.41150313    6.35735879
 C                  9.45928581   -4.62051441    4.75866375
 H                  9.32150192   -5.55864802    5.28785890
 C                 11.37039677    5.40067874    1.92815768
 H                 11.76680202    6.08430074    2.67296954
 C                 10.34094048    3.63345607    0.02224784
 H                  9.94119415    2.94425413   -0.71540699
 C                  2.37599545   -0.27984994    1.96851325
 H                  1.31267231   -0.49612983    1.97899725
 C                 10.01708033   -4.61429335    3.47525546
 H                 10.31478309   -5.54696957    3.00549582
 C                 11.02807567    5.86912165    0.65541724
 H                 11.16085433    6.91781916    0.40695805
 C                 10.51007099    4.98288595   -0.29567115
 H                 10.23832558    5.34130695   -1.28404046
 C                  5.13331073    0.27978509    1.94912865

 1 6 1.0 7 1.0
 2 10 1.0 16 1.0
 3 7 1.5 15 1.5 26 1.5
 4 11 1.0 13 1.5 16 1.5
 5 15 1.5 17 1.5 27 1.5
 6 9 1.5 13 1.5
 7 23 1.5
 8 15 1.5 19 1.5 29 1.5
 9 14 1.5 26 1.0
 10 12 1.5 36 1.5
 11 12 1.5 34 1.5
 12 25 1.5
 13 31 1.0
 14 16 1.5 33 1.0
 15
 16
 17 18 1.0 23 2.0
 18
 19 20 1.0 21 2.0
 20
 21 22 1.0 26 1.5
 22
 23 24 1.0
 24
 25 32 1.5 46 1.5
 26
 27 28 1.0 40 1.5
 28
 29 30 1.0 40 1.5
 30
 31 49 1.5 51 1.5
 32 38 1.5 47 1.5
 33 44 1.5 61 1.5
 34 35 1.0 47 2.0
 35
 36 37 1.0 42 2.0
 37
 38 39 1.0 63 1.5
 39
 40 41 1.0
 41
 42 43 1.0 46 1.5
 43
 44 45 1.0 59 1.5
 45
 46 53 1.5
 47 48 1.0
 48
 49 50 1.0 55 1.5
 50
 51 52 1.0 65 1.5
 52
 53 54 1.0 63 1.5
 54
 55 56 1.0 57 1.5
 56
 57 58 1.0 65 1.5
 58
 59 60 1.0 67 1.5
 60
 61 62 1.0 69 1.5
 62
 63 64 1.0
 64
 65 66 1.0
 66
 67 68 1.0 69 1.5
 68
 69 70 1.0
 70
 71 76 1.0 77 1.0
 72 80 1.0 86 1.0
 73 77 1.5 85 1.5 95 1.5
 74 81 1.0 83 1.5 86 1.5
 75 85 1.5 87 1.5 96 1.5
 76 79 1.5 83 1.5
 77 93 1.5
 78 85 1.5 89 1.5 98 1.5
 79 84 1.5 95 1.0
 80 82 1.5 105 1.5
 81 82 1.5 103 1.5
 82 140 1.5
 83 100 1.0
 84 86 1.5 102 1.0
 85
 86
 87 88 1.0 93 2.0
 88
 89 90 1.0 91 2.0
 90
 91 92 1.0 95 1.5
 92
 93 94 1.0
 94
 95
 96 97 1.0 109 1.5
 97
 98 99 1.0 109 1.5
 99
 100 118 1.5 120 1.5
 101 107 1.5 116 1.5 140 1.5
 102 113 1.5 130 1.5
 103 104 1.0 116 2.0
 104
 105 106 1.0 111 2.0
 106
 107 108 1.0 132 1.5
 108
 109 110 1.0
 110
 111 112 1.0 115 1.5
 112
 113 114 1.0 128 1.5
 114
 115 122 1.5 140 1.5
 116 117 1.0
 117
 118 119 1.0 124 1.5
 119
 120 121 1.0 134 1.5
 121
 122 123 1.0 132 1.5
 123
 124 125 1.0 126 1.5
 125
 126 127 1.0 134 1.5
 127
 128 129 1.0 136 1.5
 129
 130 131 1.0 138 1.5
 131
 132 133 1.0
 133
 134 135 1.0
 135
 136 137 1.0 138 1.5
 137
 138 139 1.0
 139
 140

