%chk=/oasis/projects/nsf/lhu120/cmw414/pent_y_stack/n_0_8A/dimer/dimer.chk
%nprocshared=24
%mem=110GB
#p b3lyp/6-311g(d,p) nosymm pop=full iop(3/33=1) punch=mo

c47

0 1
 C                 -9.03708654   -5.84932137    3.71603319
 C                 -9.00908654   -4.99332137    2.66003319
 C                 -8.38808654   -5.31132137    1.42503319
 C                 -8.37308654   -4.41232137    0.34003319
 C                 -7.71808654   -4.74532137   -0.87796681
 C                 -7.66908654   -3.88132137   -1.95996681
 C                 -7.12108654   -6.08932137   -1.01196681
 C                 -7.23608654   -6.93332137    0.04603319
 C                 -7.75708654   -6.62932137    1.29103319
 C                 -7.88308654   -7.49832137    2.38203319
 C                 -8.39508654   -7.18132137    3.58703319
 H                 -9.52708654   -5.53032137    4.78303319
 H                 -9.41808654   -3.96932137    2.75303319
 H                 -8.80708654   -3.39932137    0.47603319
 H                 -8.13608654   -2.86332137   -1.81496681
 H                 -6.77808654   -7.94432137   -0.04596681
 H                 -7.42608654   -8.50432137    2.30303319
 H                 -8.40608654   -7.86032137    4.46403319
 C                 -7.06908654   -4.20032137   -3.19796681
 C                 -6.52108654   -6.40832137   -2.24996681
 C                 -6.47108654   -5.54532137   -3.33196681
 C                 -6.95408654   -3.35732137   -4.25596681
 H                 -6.05308654   -7.42732137   -2.39496681
 C                 -5.81708654   -5.87832137   -4.54996681
 C                 -6.43208654   -3.66132137   -5.50096681
 H                 -7.41208654   -2.34632137   -4.16396681
 C                 -5.80208654   -4.97932137   -5.63496681
 H                 -5.38308654   -6.89032137   -4.68596681
 C                 -6.30708654   -2.79232137   -6.59196681
 C                 -5.18108654   -5.29632137   -6.86996681
 C                 -5.79508654   -3.10932137   -7.79696681
 H                 -6.76408654   -1.78632137   -6.51296681
 C                 -5.15308654   -4.44132137   -7.92596681
 H                 -4.77208654   -6.32132137   -6.96296681
 H                 -5.78308654   -2.43032137   -8.67396681
 H                 -4.66308654   -4.76032137   -8.99296681
 C                 -5.55955519   -5.28557798    4.80563065
 C                 -5.53155519   -4.42957798    3.74963065
 C                 -4.91055519   -4.74757798    2.51463065
 C                 -4.89555519   -3.84857798    1.42963065
 C                 -4.24055519   -4.18157798    0.21163065
 C                 -4.19155519   -3.31757798   -0.87036935
 C                 -3.64355519   -5.52557798    0.07763065
 C                 -3.75855519   -6.36957798    1.13563065
 C                 -4.27955519   -6.06557798    2.38063065
 C                 -4.40555519   -6.93457798    3.47163065
 C                 -4.91755519   -6.61757798    4.67663065
 H                 -6.04955519   -4.96657798    5.87263065
 H                 -5.94055519   -3.40557798    3.84263065
 H                 -5.32955519   -2.83557798    1.56563065
 H                 -4.65855519   -2.29957798   -0.72536935
 H                 -3.30055519   -7.38057798    1.04363065
 H                 -3.94855519   -7.94057798    3.39263065
 H                 -4.92855519   -7.29657798    5.55363065
 C                 -3.59155519   -3.63657798   -2.10836935
 C                 -3.04355519   -5.84457798   -1.16036935
 C                 -2.99355519   -4.98157798   -2.24236935
 C                 -3.47655519   -2.79357798   -3.16636935
 H                 -2.57555519   -6.86357798   -1.30536935
 C                 -2.33955519   -5.31457798   -3.46036935
 C                 -2.95455519   -3.09757798   -4.41136935
 H                 -3.93455519   -1.78257798   -3.07436935
 C                 -2.32455519   -4.41557798   -4.54536935
 H                 -1.90555519   -6.32657798   -3.59636935
 C                 -2.82955519   -2.22857798   -5.50236935
 C                 -1.70355519   -4.73257798   -5.78036935
 C                 -2.31755519   -2.54557798   -6.70736935
 H                 -3.28655519   -1.22257798   -5.42336935
 C                 -1.67555519   -3.87757798   -6.83636935
 H                 -1.29455519   -5.75757798   -5.87336935
 H                 -2.30555519   -1.86657798   -7.58436935
 H                 -1.18555519   -4.19657798   -7.90336935

 1 2 2.0 11 1.0 12 1.0
 2 3 1.5 13 1.0
 3 4 1.5 9 1.0
 4 5 1.5 14 1.0
 5 6 2.0 7 1.0
 6 15 1.0 19 1.5
 7 8 2.0 20 1.5
 8 9 2.0 16 1.0
 9 10 1.5
 10 11 2.0 17 1.0
 11 18 1.0
 12
 13
 14
 15
 16
 17
 18
 19 21 1.0 22 2.0
 20 21 2.0 23 1.0
 21 24 1.5
 22 25 2.0 26 1.0
 23
 24 27 1.5 28 1.0
 25 27 1.0 29 1.5
 26
 27 30 1.5
 28
 29 31 2.0 32 1.0
 30 33 2.0 34 1.0
 31 33 1.0 35 1.0
 32
 33 36 1.0
 34
 35
 36
 37 38 2.0 47 1.0 48 1.0
 38 39 1.5 49 1.0
 39 40 1.5 45 1.0
 40 41 1.5 50 1.0
 41 42 2.0 43 1.0
 42 51 1.0 55 1.5
 43 44 2.0 56 1.5
 44 45 2.0 52 1.0
 45 46 1.5
 46 47 2.0 53 1.0
 47 54 1.0
 48
 49
 50
 51
 52
 53
 54
 55 57 1.0 58 2.0
 56 57 2.0 59 1.0
 57 60 1.5
 58 61 2.0 62 1.0
 59
 60 63 1.5 64 1.0
 61 63 1.0 65 1.5
 62
 63 66 1.5
 64
 65 67 2.0 68 1.0
 66 69 2.0 70 1.0
 67 69 1.0 71 1.0
 68
 69 72 1.0
 70
 71
 72


