%chk=/oasis/projects/nsf/lhu120/cmw414/pent_stack/3_5A/dimer/dimer.chk
%nprocshared=24
%mem=110GB
#p b3lyp/6-311g(d,p) nosymm pop=full iop(3/33=1) punch=mo

c47

0 1
 C                 -8.71269653   -6.57702505    3.64379411
 C                 -8.68469653   -5.72102505    2.58779411
 C                 -8.06369653   -6.03902505    1.35279411
 C                 -8.04869653   -5.14002505    0.26779411
 C                 -7.39369653   -5.47302505   -0.95020589
 C                 -7.34469653   -4.60902505   -2.03220589
 C                 -6.79669653   -6.81702505   -1.08420589
 C                 -6.91169653   -7.66102505   -0.02620589
 C                 -7.43269653   -7.35702505    1.21879411
 C                 -7.55869653   -8.22602505    2.30979411
 C                 -8.07069653   -7.90902505    3.51479411
 H                 -9.20269653   -6.25802505    4.71079411
 H                 -9.09369653   -4.69702505    2.68079411
 H                 -8.48269653   -4.12702505    0.40379411
 H                 -7.81169653   -3.59102505   -1.88720589
 H                 -6.45369653   -8.67202505   -0.11820589
 H                 -7.10169653   -9.23202505    2.23079411
 H                 -8.08169653   -8.58802505    4.39179411
 C                 -6.74469653   -4.92802505   -3.27020589
 C                 -6.19669653   -7.13602505   -2.32220589
 C                 -6.14669653   -6.27302505   -3.40420589
 C                 -6.62969653   -4.08502505   -4.32820589
 H                 -5.72869653   -8.15502505   -2.46720589
 C                 -5.49269653   -6.60602505   -4.62220589
 C                 -6.10769653   -4.38902505   -5.57320589
 H                 -7.08769653   -3.07402505   -4.23620589
 C                 -5.47769653   -5.70702505   -5.70720589
 H                 -5.05869653   -7.61802505   -4.75820589
 C                 -5.98269653   -3.52002505   -6.66420589
 C                 -4.85669653   -6.02402505   -6.94220589
 C                 -5.47069653   -3.83702505   -7.86920589
 H                 -6.43969653   -2.51402505   -6.58520589
 C                 -4.82869653   -5.16902505   -7.99820589
 H                 -4.44769653   -7.04902505   -7.03520589
 H                 -5.45869653   -3.15802505   -8.74620589
 H                 -4.33869653   -5.48802505   -9.06520589
 C                 -5.64714544   -5.32145274    4.77335632
 C                 -5.61914544   -4.46545274    3.71735632
 C                 -4.99814544   -4.78345274    2.48235632
 C                 -4.98314544   -3.88445274    1.39735632
 C                 -4.32814544   -4.21745274    0.17935632
 C                 -4.27914544   -3.35345274   -0.90264368
 C                 -3.73114544   -5.56145274    0.04535632
 C                 -3.84614544   -6.40545274    1.10335632
 C                 -4.36714544   -6.10145274    2.34835632
 C                 -4.49314544   -6.97045274    3.43935632
 C                 -5.00514544   -6.65345274    4.64435632
 H                 -6.13714544   -5.00245274    5.84035632
 H                 -6.02814544   -3.44145274    3.81035632
 H                 -5.41714544   -2.87145274    1.53335632
 H                 -4.74614544   -2.33545274   -0.75764368
 H                 -3.38814544   -7.41645274    1.01135632
 H                 -4.03614544   -7.97645274    3.36035632
 H                 -5.01614544   -7.33245274    5.52135632
 C                 -3.67914544   -3.67245274   -2.14064368
 C                 -3.13114544   -5.88045274   -1.19264368
 C                 -3.08114544   -5.01745274   -2.27464368
 C                 -3.56414544   -2.82945274   -3.19864368
 H                 -2.66314544   -6.89945274   -1.33764368
 C                 -2.42714544   -5.35045274   -3.49264368
 C                 -3.04214544   -3.13345274   -4.44364368
 H                 -4.02214544   -1.81845274   -3.10664368
 C                 -2.41214544   -4.45145274   -4.57764368
 H                 -1.99314544   -6.36245274   -3.62864368
 C                 -2.91714544   -2.26445274   -5.53464368
 C                 -1.79114544   -4.76845274   -5.81264368
 C                 -2.40514544   -2.58145274   -6.73964368
 H                 -3.37414544   -1.25845274   -5.45564368
 C                 -1.76314544   -3.91345274   -6.86864368
 H                 -1.38214544   -5.79345274   -5.90564368
 H                 -2.39314544   -1.90245274   -7.61664368
 H                 -1.27314544   -4.23245274   -7.93564368

 1 2 2.0 11 1.0 12 1.0
 2 3 1.5 13 1.0
 3 4 1.5 9 1.0
 4 5 1.5 14 1.0
 5 6 2.0 7 1.0
 6 15 1.0 19 1.5
 7 8 2.0 20 1.5
 8 9 2.0 16 1.0
 9 10 1.5
 10 11 2.0 17 1.0
 11 18 1.0
 12
 13
 14
 15
 16
 17
 18
 19 21 1.0 22 2.0
 20 21 2.0 23 1.0
 21 24 1.5
 22 25 2.0 26 1.0
 23
 24 27 1.5 28 1.0
 25 27 1.0 29 1.5
 26
 27 30 1.5
 28
 29 31 2.0 32 1.0
 30 33 2.0 34 1.0
 31 33 1.0 35 1.0
 32
 33 36 1.0
 34
 35
 36
 37 38 2.0 47 1.0 48 1.0
 38 39 1.5 49 1.0
 39 40 1.5 45 1.0
 40 41 1.5 50 1.0
 41 42 2.0 43 1.0
 42 51 1.0 55 1.5
 43 44 2.0 56 1.5
 44 45 2.0 52 1.0
 45 46 1.5
 46 47 2.0 53 1.0
 47 54 1.0
 48
 49
 50
 51
 52
 53
 54
 55 57 1.0 58 2.0
 56 57 2.0 59 1.0
 57 60 1.5
 58 61 2.0 62 1.0
 59
 60 63 1.5 64 1.0
 61 63 1.0 65 1.5
 62
 63 66 1.5
 64
 65 67 2.0 68 1.0
 66 69 2.0 70 1.0
 67 69 1.0 71 1.0
 68
 69 72 1.0
 70
 71
 72


