%chk=/oasis/projects/nsf/lhu120/cmw414/pent_y_stack/0_8A/dimer/dimer.chk
%nprocshared=24
%mem=110GB
#p b3lyp/6-311g(d,p) nosymm pop=full iop(3/33=1) punch=mo

c47

0 1
 C                 -8.38830657   -7.30472874    3.57155502
 C                 -8.36030657   -6.44872874    2.51555502
 C                 -7.73930657   -6.76672874    1.28055502
 C                 -7.72430657   -5.86772874    0.19555502
 C                 -7.06930657   -6.20072874   -1.02244498
 C                 -7.02030657   -5.33672874   -2.10444498
 C                 -6.47230657   -7.54472874   -1.15644498
 C                 -6.58730657   -8.38872874   -0.09844498
 C                 -7.10830657   -8.08472874    1.14655502
 C                 -7.23430657   -8.95372874    2.23755502
 C                 -7.74630657   -8.63672874    3.44255502
 H                 -8.87830657   -6.98572874    4.63855502
 H                 -8.76930657   -5.42472874    2.60855502
 H                 -8.15830657   -4.85472874    0.33155502
 H                 -7.48730657   -4.31872874   -1.95944498
 H                 -6.12930657   -9.39972874   -0.19044498
 H                 -6.77730657   -9.95972874    2.15855502
 H                 -7.75730657   -9.31572874    4.31955502
 C                 -6.42030657   -5.65572874   -3.34244498
 C                 -5.87230657   -7.86372874   -2.39444498
 C                 -5.82230657   -7.00072874   -3.47644498
 C                 -6.30530657   -4.81272874   -4.40044498
 H                 -5.40430657   -8.88272874   -2.53944498
 C                 -5.16830657   -7.33372874   -4.69444498
 C                 -5.78330657   -5.11672874   -5.64544498
 H                 -6.76330657   -3.80172874   -4.30844498
 C                 -5.15330657   -6.43472874   -5.77944498
 H                 -4.73430657   -8.34572874   -4.83044498
 C                 -5.65830657   -4.24772874   -6.73644498
 C                 -4.53230657   -6.75172874   -7.01444498
 C                 -5.14630657   -4.56472874   -7.94144498
 H                 -6.11530657   -3.24172874   -6.65744498
 C                 -4.50430657   -5.89672874   -8.07044498
 H                 -4.12330657   -7.77672874   -7.10744498
 H                 -5.13430657   -3.88572874   -8.81844498
 H                 -4.01430657   -6.21572874   -9.13744498
 C                 -5.55955519   -5.28557798    4.80563065
 C                 -5.53155519   -4.42957798    3.74963065
 C                 -4.91055519   -4.74757798    2.51463065
 C                 -4.89555519   -3.84857798    1.42963065
 C                 -4.24055519   -4.18157798    0.21163065
 C                 -4.19155519   -3.31757798   -0.87036935
 C                 -3.64355519   -5.52557798    0.07763065
 C                 -3.75855519   -6.36957798    1.13563065
 C                 -4.27955519   -6.06557798    2.38063065
 C                 -4.40555519   -6.93457798    3.47163065
 C                 -4.91755519   -6.61757798    4.67663065
 H                 -6.04955519   -4.96657798    5.87263065
 H                 -5.94055519   -3.40557798    3.84263065
 H                 -5.32955519   -2.83557798    1.56563065
 H                 -4.65855519   -2.29957798   -0.72536935
 H                 -3.30055519   -7.38057798    1.04363065
 H                 -3.94855519   -7.94057798    3.39263065
 H                 -4.92855519   -7.29657798    5.55363065
 C                 -3.59155519   -3.63657798   -2.10836935
 C                 -3.04355519   -5.84457798   -1.16036935
 C                 -2.99355519   -4.98157798   -2.24236935
 C                 -3.47655519   -2.79357798   -3.16636935
 H                 -2.57555519   -6.86357798   -1.30536935
 C                 -2.33955519   -5.31457798   -3.46036935
 C                 -2.95455519   -3.09757798   -4.41136935
 H                 -3.93455519   -1.78257798   -3.07436935
 C                 -2.32455519   -4.41557798   -4.54536935
 H                 -1.90555519   -6.32657798   -3.59636935
 C                 -2.82955519   -2.22857798   -5.50236935
 C                 -1.70355519   -4.73257798   -5.78036935
 C                 -2.31755519   -2.54557798   -6.70736935
 H                 -3.28655519   -1.22257798   -5.42336935
 C                 -1.67555519   -3.87757798   -6.83636935
 H                 -1.29455519   -5.75757798   -5.87336935
 H                 -2.30555519   -1.86657798   -7.58436935
 H                 -1.18555519   -4.19657798   -7.90336935

 1 2 2.0 11 1.0 12 1.0
 2 3 1.5 13 1.0
 3 4 1.5 9 1.0
 4 5 1.5 14 1.0
 5 6 2.0 7 1.0
 6 15 1.0 19 1.5
 7 8 2.0 20 1.5
 8 9 2.0 16 1.0
 9 10 1.5
 10 11 2.0 17 1.0
 11 18 1.0
 12
 13
 14
 15
 16
 17
 18
 19 21 1.0 22 2.0
 20 21 2.0 23 1.0
 21 24 1.5
 22 25 2.0 26 1.0
 23
 24 27 1.5 28 1.0
 25 27 1.0 29 1.5
 26
 27 30 1.5
 28
 29 31 2.0 32 1.0
 30 33 2.0 34 1.0
 31 33 1.0 35 1.0
 32
 33 36 1.0
 34
 35
 36
 37 38 2.0 47 1.0 48 1.0
 38 39 1.5 49 1.0
 39 40 1.5 45 1.0
 40 41 1.5 50 1.0
 41 42 2.0 43 1.0
 42 51 1.0 55 1.5
 43 44 2.0 56 1.5
 44 45 2.0 52 1.0
 45 46 1.5
 46 47 2.0 53 1.0
 47 54 1.0
 48
 49
 50
 51
 52
 53
 54
 55 57 1.0 58 2.0
 56 57 2.0 59 1.0
 57 60 1.5
 58 61 2.0 62 1.0
 59
 60 63 1.5 64 1.0
 61 63 1.0 65 1.5
 62
 63 66 1.5
 64
 65 67 2.0 68 1.0
 66 69 2.0 70 1.0
 67 69 1.0 71 1.0
 68
 69 72 1.0
 70
 71
 72


