%chk=/oasis/projects/nsf/lhu120/cmw414/rc_slip_y_90/6_0A/dimer/dimer.chk
%mem=110GB
#p b3lyp/6-311g(d,p) nosymm pop=full iop(3/33=1) punch=mo

c47

2 1
 O                  1.86343256   -2.18814168   -0.63312396
 O                 -1.87688744    1.76594132   -0.63317696
 C                  3.69461456   -0.67140268   -0.87047896
 C                 -1.39648944   -0.60712468   -0.87219696
 C                  5.97175156   -1.62878468   -0.73581696
 C                  0.95630456   -1.17504168   -0.77241696
 C                  3.19421256   -1.96292068   -0.63793396
 C                  5.65376956    0.77013232   -1.23999596
 C                  1.38305156    0.18492932   -0.87218096
 C                 -3.20766744    1.54071032   -0.63799196
 C                 -2.81321944   -0.85705968   -1.03609996
 C                 -3.70805744    0.24918032   -0.87049696
 C                 -0.37497644   -1.59266368   -0.78251796
 C                  0.36153156    1.17047132   -0.78252296
 C                  5.10807156   -0.51188368   -0.94441996
 C                 -0.96975044    0.75284632   -0.77244796
 C                  5.39488456   -2.90675768   -0.47207296
 H                  6.04966056   -3.75780568   -0.31297796
 C                  4.74462556    1.84550032   -1.48258496
 H                  5.14791656    2.81613132   -1.75583896
 C                  3.38157356    1.68676032   -1.38711396
 H                  2.74968056    2.53497832   -1.59754396
 C                  4.02720956   -3.07643968   -0.43155996
 H                  3.57365556   -4.04439768   -0.25108496
 C                 -5.12151244    0.08963932   -0.94441896
 C                  2.79978656    0.43484332   -1.03611196
 C                  7.36964356   -1.42936968   -0.80567596
 H                  8.03205756   -2.27390668   -0.64047896
 C                  7.05237556    0.92132132   -1.30766596
 H                  7.47035056    1.89702532   -1.53701096
 C                 -0.64793744   -3.04866968   -0.59509396
 C                 -5.66719544   -1.19239768   -1.23993096
 C                  0.63446856    2.62647732   -0.59506596
 C                 -3.39498944   -2.10900768   -1.38701396
 H                 -2.76308144   -2.95723068   -1.59738596
 C                 -4.04067744    2.65422632   -0.43164996
 H                 -3.58713344    3.62219432   -0.25120396
 C                 -7.06580044   -1.34360768   -1.30758296
 H                 -7.48376544   -2.31932768   -1.53687896
 C                  7.89727656   -0.17032768   -1.08596396
 H                  8.97295756   -0.03707868   -1.13791896
 C                 -5.40835044    2.48452732   -0.47215796
 H                 -6.06313544    3.33557232   -0.31308796
 C                  1.19132356    3.07285032    0.61237504
 H                  1.43075056    2.35253132    1.38925504
 C                 -5.98520444    1.20653832   -0.73585396
 C                 -4.75804044   -2.26777068   -1.48246496
 H                 -5.16132144   -3.23842268   -1.75565596
 C                 -1.20495544   -3.49503768    0.61227204
 H                 -1.44447744   -2.77471768    1.38912204
 C                 -0.33428944   -3.98126668   -1.59421096
 H                  0.10494656   -3.63898068   -2.52632896
 C                 -7.38309444    1.00710232   -0.80569496
 H                 -8.04551744    1.85163832   -0.64052696
 C                 -1.46487044   -4.85334768    0.80924704
 H                 -1.90033044   -5.18805568    1.74603204
 C                 -1.16705344   -5.77762768   -0.19748196
 H                 -1.37357744   -6.83295368   -0.04661296
 C                  1.45120356    4.43116132    0.80938404
 H                  1.88654356    4.76587132    1.74622404
 C                  0.32092856    3.55907532   -1.59421596
 H                 -0.11819244    3.21678732   -2.52638696
 C                 -7.91071344   -0.25195768   -1.08592496
 H                 -8.98639244   -0.38522368   -1.13786596
 C                 -0.59829944   -5.33868768   -1.39838196
 H                 -0.36076744   -6.05187768   -2.18204296
 C                  1.15351056    5.35543932   -0.19738296
 H                  1.36000956    6.41076732   -0.04648696
 C                  0.58490756    4.91649632   -1.39835396
 H                  0.34746656    5.62968632   -2.18204196
 O                 14.81465857   -6.61665002    3.73798406
 O                 10.81822412   -3.20337638    2.32276648
 C                 16.54372422   -5.17089805    2.94413562
 C                 11.46048472   -5.46015772    2.96603494
 C                 18.87737905   -5.85417891    3.39938221
 C                 13.84408635   -5.78964205    3.24533537
 C                 16.12724712   -6.31838297    3.63863061
 C                 18.40767955   -3.83459951    2.05372505
 C                 14.18030449   -4.53502563    2.64995146
 C                  9.50579508   -3.50517922    2.41316932
 C                 10.06659209   -5.84905251    2.91828801
 C                  9.09700567   -4.82306425    2.67502565
 C                 12.54414050   -6.27194381    3.40136444
 C                 13.09368185   -3.65752992    2.38146080
 C                 17.94433737   -4.95327180    2.80379359
 C                 11.79340224   -4.13244224    2.55626101
 C                 18.38319656   -6.98289471    4.11864276
 H                 19.09082980   -7.66953549    4.57263082
 C                 17.43262712   -2.98779494    1.44216692
 H                 17.77440540   -2.15963354    0.82834918
 C                 16.08189120   -3.19336179    1.60178704
 H                 15.39812327   -2.52659033    1.10086733
 C                 17.02948909   -7.21906744    4.23118921
 H                 16.63891971   -8.08218021    4.75817788
 C                 15.57961388   -4.26626518    2.39271719
 C                 20.25972279   -5.59910063    3.24835393
 H                 20.97443867   -6.27694135    3.70556094
 C                 19.79393199   -3.62342133    1.92240847
 H                 20.14929456   -2.77346013    1.34744419
 C                 12.36633194   -7.57303713    4.11208885
 C                  7.24526536   -6.43014599    2.87799471
 C                 13.26527966   -2.21908548    2.01949399
 C                  9.57591781   -7.17915871    3.05622646
 H                 10.26664570   -8.00011155    3.16566950
 C                  8.59672914   -2.45328329    2.20456778
 H                  8.98133146   -1.45792398    2.01334571
 C                  5.86124860   -6.69092426    2.88342691
 H                  5.51346622   -7.70894123    3.03171642
 C                 20.70633068   -4.49738133    2.52109835
 H                 21.77137159   -4.31918355    2.41396457
 C                  7.24436192   -2.71915697    2.24174540
 H                  6.53146910   -1.91594701    2.08375216
 C                 13.77095956   -1.32438828    2.97398594
 H                 14.04527644   -1.69178312    3.95861712
 C                  6.75889801   -4.04113561    2.47032642
 C                  8.22833528   -7.45469880    3.03823742
 C                 11.82063660   -7.58297904    5.40412750
 H                 11.52058307   -6.64631819    5.86495498
 C                 12.75823148   -8.78304455    3.52162816
 H                 13.18885977   -8.77689396    2.52490684
 C                  5.37886321   -4.34741796    2.49139738
 H                  4.65868627   -3.54853626    2.34153430
 C                 11.64913684   -8.78902418    6.08779696
 H                 11.22169059   -8.78617455    7.08604672
 C                 12.02481130   -9.99518583    5.48735168
 H                 11.88702741  -10.93331944    6.01654683
 C                 13.93592226    0.02600732    2.65684561
 H                 14.33232751    0.70962932    3.40165747
 C                 12.90646597   -1.74121535    0.75093577
 H                 12.50671964   -2.43041729    0.01328094
 C                  4.94152094   -5.65452136    2.69720118
 C                 12.58260582   -9.98896477    4.20394339
 H                 12.88030858  -10.92164099    3.73418375
 C                 13.59360116    0.49445023    1.38410517
 H                 13.72637982    1.54314774    1.13564598
 C                 13.07559648   -0.39178547    0.43301678
 H                 12.80385107   -0.03336447   -0.55535253
 C                  7.69883622   -5.09488633    2.67781658
 H                  7.90049425   -8.46792346    3.14214143
 H                  3.89303972   -5.86778240    2.70753884

 1 6 1.0 7 1.0
 2 10 1.0 16 1.0
 3 7 1.5 15 1.5 26 1.5
 4 11 1.0 13 1.5 16 1.5
 5 15 1.5 17 1.5 27 1.5
 6 9 1.5 13 1.5
 7 23 1.5
 8 15 1.5 19 1.5 29 1.5
 9 14 1.5 26 1.0
 10 12 1.5 36 1.5
 11 12 1.5 34 1.5
 12 25 1.5
 13 31 1.0
 14 16 1.5 33 1.0
 15
 16
 17 18 1.0 23 2.0
 18
 19 20 1.0 21 2.0
 20
 21 22 1.0 26 1.5
 22
 23 24 1.0
 24
 25 32 1.5 46 1.5
 26
 27 28 1.0 40 1.5
 28
 29 30 1.0 40 1.5
 30
 31 49 1.5 51 1.5
 32 38 1.5 47 1.5
 33 44 1.5 61 1.5
 34 35 1.0 47 2.0
 35
 36 37 1.0 42 2.0
 37
 38 39 1.0 63 1.5
 39
 40 41 1.0
 41
 42 43 1.0 46 1.5
 43
 44 45 1.0 59 1.5
 45
 46 53 1.5
 47 48 1.0
 48
 49 50 1.0 55 1.5
 50
 51 52 1.0 65 1.5
 52
 53 54 1.0 63 1.5
 54
 55 56 1.0 57 1.5
 56
 57 58 1.0 65 1.5
 58
 59 60 1.0 67 1.5
 60
 61 62 1.0 69 1.5
 62
 63 64 1.0
 64
 65 66 1.0
 66
 67 68 1.0 69 1.5
 68
 69 70 1.0
 70
 71 76 1.0 77 1.0
 72 80 1.0 86 1.0
 73 77 1.5 85 1.5 95 1.5
 74 81 1.0 83 1.5 86 1.5
 75 85 1.5 87 1.5 96 1.5
 76 79 1.5 83 1.5
 77 93 1.5
 78 85 1.5 89 1.5 98 1.5
 79 84 1.5 95 1.0
 80 82 1.5 105 1.5
 81 82 1.5 103 1.5
 82 140 1.5
 83 100 1.0
 84 86 1.5 102 1.0
 85
 86
 87 88 1.0 93 2.0
 88
 89 90 1.0 91 2.0
 90
 91 92 1.0 95 1.5
 92
 93 94 1.0
 94
 95
 96 97 1.0 109 1.5
 97
 98 99 1.0 109 1.5
 99
 100 118 1.5 120 1.5
 101 107 1.5 116 1.5 140 1.5
 102 113 1.5 130 1.5
 103 104 1.0 116 2.0
 104
 105 106 1.0 111 2.0
 106
 107 108 1.0 132 1.5
 108
 109 110 1.0
 110
 111 112 1.0 115 1.5
 112
 113 114 1.0 128 1.5
 114
 115 122 1.5 140 1.5
 116 117 1.0
 117
 118 119 1.0 124 1.5
 119
 120 121 1.0 134 1.5
 121
 122 123 1.0 132 1.5
 123
 124 125 1.0 126 1.5
 125
 126 127 1.0 134 1.5
 127
 128 129 1.0 136 1.5
 129
 130 131 1.0 138 1.5
 131
 132 133 1.0
 133
 134 135 1.0
 135
 136 137 1.0 138 1.5
 137
 138 139 1.0
 139
 140

















































