%chk=/oasis/projects/nsf/lhu120/cmw414/pent_slip_x/1_0A/dimer/dimer.chk
%nprocshared=24
%mem=110GB
#p b3lyp/6-311g(d,p) nosymm pop=full iop(3/33=1) punch=mo

c47

0 1
 C                 -8.44631303   -6.35773352    2.70520418
 C                 -8.41831303   -5.50173352    1.64920418
 C                 -7.79731303   -5.81973352    0.41420418
 C                 -7.78231303   -4.92073352   -0.67079582
 C                 -7.12731303   -5.25373352   -1.88879582
 C                 -7.07831303   -4.38973352   -2.97079582
 C                 -6.53031303   -6.59773352   -2.02279582
 C                 -6.64531303   -7.44173352   -0.96479582
 C                 -7.16631303   -7.13773352    0.28020418
 C                 -7.29231303   -8.00673352    1.37120418
 C                 -7.80431303   -7.68973352    2.57620418
 H                 -8.93631303   -6.03873352    3.77220418
 H                 -8.82731303   -4.47773352    1.74220418
 H                 -8.21631303   -3.90773352   -0.53479582
 H                 -7.54531303   -3.37173352   -2.82579582
 H                 -6.18731303   -8.45273352   -1.05679582
 H                 -6.83531303   -9.01273352    1.29220418
 H                 -7.81531303   -8.36873352    3.45320418
 C                 -6.47831303   -4.70873352   -4.20879582
 C                 -5.93031303   -6.91673352   -3.26079582
 C                 -5.88031303   -6.05373352   -4.34279582
 C                 -6.36331303   -3.86573352   -5.26679582
 H                 -5.46231303   -7.93573352   -3.40579582
 C                 -5.22631303   -6.38673352   -5.56079582
 C                 -5.84131303   -4.16973352   -6.51179582
 H                 -6.82131303   -2.85473352   -5.17479582
 C                 -5.21131303   -5.48773352   -6.64579582
 H                 -4.79231303   -7.39873352   -5.69679582
 C                 -5.71631303   -3.30073352   -7.60279582
 C                 -4.59031303   -5.80473352   -7.88079582
 C                 -5.20431303   -3.61773352   -8.80779582
 H                 -6.17331303   -2.29473352   -7.52379582
 C                 -4.56231303   -4.94973352   -8.93679582
 H                 -4.18131303   -6.82973352   -7.97379582
 H                 -5.19231303   -2.93873352   -9.68479582
 H                 -4.07231303   -5.26873352  -10.00379582
 C                 -5.55955519   -5.28557798    4.80563065
 C                 -5.53155519   -4.42957798    3.74963065
 C                 -4.91055519   -4.74757798    2.51463065
 C                 -4.89555519   -3.84857798    1.42963065
 C                 -4.24055519   -4.18157798    0.21163065
 C                 -4.19155519   -3.31757798   -0.87036935
 C                 -3.64355519   -5.52557798    0.07763065
 C                 -3.75855519   -6.36957798    1.13563065
 C                 -4.27955519   -6.06557798    2.38063065
 C                 -4.40555519   -6.93457798    3.47163065
 C                 -4.91755519   -6.61757798    4.67663065
 H                 -6.04955519   -4.96657798    5.87263065
 H                 -5.94055519   -3.40557798    3.84263065
 H                 -5.32955519   -2.83557798    1.56563065
 H                 -4.65855519   -2.29957798   -0.72536935
 H                 -3.30055519   -7.38057798    1.04363065
 H                 -3.94855519   -7.94057798    3.39263065
 H                 -4.92855519   -7.29657798    5.55363065
 C                 -3.59155519   -3.63657798   -2.10836935
 C                 -3.04355519   -5.84457798   -1.16036935
 C                 -2.99355519   -4.98157798   -2.24236935
 C                 -3.47655519   -2.79357798   -3.16636935
 H                 -2.57555519   -6.86357798   -1.30536935
 C                 -2.33955519   -5.31457798   -3.46036935
 C                 -2.95455519   -3.09757798   -4.41136935
 H                 -3.93455519   -1.78257798   -3.07436935
 C                 -2.32455519   -4.41557798   -4.54536935
 H                 -1.90555519   -6.32657798   -3.59636935
 C                 -2.82955519   -2.22857798   -5.50236935
 C                 -1.70355519   -4.73257798   -5.78036935
 C                 -2.31755519   -2.54557798   -6.70736935
 H                 -3.28655519   -1.22257798   -5.42336935
 C                 -1.67555519   -3.87757798   -6.83636935
 H                 -1.29455519   -5.75757798   -5.87336935
 H                 -2.30555519   -1.86657798   -7.58436935
 H                 -1.18555519   -4.19657798   -7.90336935

 1 2 2.0 11 1.0 12 1.0
 2 3 1.5 13 1.0
 3 4 1.5 9 1.0
 4 5 1.5 14 1.0
 5 6 2.0 7 1.0
 6 15 1.0 19 1.5
 7 8 2.0 20 1.5
 8 9 2.0 16 1.0
 9 10 1.5
 10 11 2.0 17 1.0
 11 18 1.0
 12
 13
 14
 15
 16
 17
 18
 19 21 1.0 22 2.0
 20 21 2.0 23 1.0
 21 24 1.5
 22 25 2.0 26 1.0
 23
 24 27 1.5 28 1.0
 25 27 1.0 29 1.5
 26
 27 30 1.5
 28
 29 31 2.0 32 1.0
 30 33 2.0 34 1.0
 31 33 1.0 35 1.0
 32
 33 36 1.0
 34
 35
 36
 37 38 2.0 47 1.0 48 1.0
 38 39 1.5 49 1.0
 39 40 1.5 45 1.0
 40 41 1.5 50 1.0
 41 42 2.0 43 1.0
 42 51 1.0 55 1.5
 43 44 2.0 56 1.5
 44 45 2.0 52 1.0
 45 46 1.5
 46 47 2.0 53 1.0
 47 54 1.0
 48
 49
 50
 51
 52
 53
 54
 55 57 1.0 58 2.0
 56 57 2.0 59 1.0
 57 60 1.5
 58 61 2.0 62 1.0
 59
 60 63 1.5 64 1.0
 61 63 1.0 65 1.5
 62
 63 66 1.5
 64
 65 67 2.0 68 1.0
 66 69 2.0 70 1.0
 67 69 1.0 71 1.0
 68
 69 72 1.0
 70
 71
 72

