%chk=/oasis/projects/nsf/lhu120/cmw414/pent_y_stack/0_1A/dimer/dimer.chk
%nprocshared=24
%mem=110GB
#p b3lyp/6-311g(d,p) nosymm pop=full iop(3/33=1) punch=mo

c47

0 1
 C                 -8.67214778   -6.66798801    3.63476422
 C                 -8.64414778   -5.81198801    2.57876422
 C                 -8.02314778   -6.12998801    1.34376422
 C                 -8.00814778   -5.23098801    0.25876422
 C                 -7.35314778   -5.56398801   -0.95923578
 C                 -7.30414778   -4.69998801   -2.04123578
 C                 -6.75614778   -6.90798801   -1.09323578
 C                 -6.87114778   -7.75198801   -0.03523578
 C                 -7.39214778   -7.44798801    1.20976422
 C                 -7.51814778   -8.31698801    2.30076422
 C                 -8.03014778   -7.99998801    3.50576422
 H                 -9.16214778   -6.34898801    4.70176422
 H                 -9.05314778   -4.78798801    2.67176422
 H                 -8.44214778   -4.21798801    0.39476422
 H                 -7.77114778   -3.68198801   -1.89623578
 H                 -6.41314778   -8.76298801   -0.12723578
 H                 -7.06114778   -9.32298801    2.22176422
 H                 -8.04114778   -8.67898801    4.38276422
 C                 -6.70414778   -5.01898801   -3.27923578
 C                 -6.15614778   -7.22698801   -2.33123578
 C                 -6.10614778   -6.36398801   -3.41323578
 C                 -6.58914778   -4.17598801   -4.33723578
 H                 -5.68814778   -8.24598801   -2.47623578
 C                 -5.45214778   -6.69698801   -4.63123578
 C                 -6.06714778   -4.47998801   -5.58223578
 H                 -7.04714778   -3.16498801   -4.24523578
 C                 -5.43714778   -5.79798801   -5.71623578
 H                 -5.01814778   -7.70898801   -4.76723578
 C                 -5.94214778   -3.61098801   -6.67323578
 C                 -4.81614778   -6.11498801   -6.95123578
 C                 -5.43014778   -3.92798801   -7.87823578
 H                 -6.39914778   -2.60498801   -6.59423578
 C                 -4.78814778   -5.25998801   -8.00723578
 H                 -4.40714778   -7.13998801   -7.04423578
 H                 -5.41814778   -3.24898801   -8.75523578
 H                 -4.29814778   -5.57898801   -9.07423578
 C                 -5.55955519   -5.28557798    4.80563065
 C                 -5.53155519   -4.42957798    3.74963065
 C                 -4.91055519   -4.74757798    2.51463065
 C                 -4.89555519   -3.84857798    1.42963065
 C                 -4.24055519   -4.18157798    0.21163065
 C                 -4.19155519   -3.31757798   -0.87036935
 C                 -3.64355519   -5.52557798    0.07763065
 C                 -3.75855519   -6.36957798    1.13563065
 C                 -4.27955519   -6.06557798    2.38063065
 C                 -4.40555519   -6.93457798    3.47163065
 C                 -4.91755519   -6.61757798    4.67663065
 H                 -6.04955519   -4.96657798    5.87263065
 H                 -5.94055519   -3.40557798    3.84263065
 H                 -5.32955519   -2.83557798    1.56563065
 H                 -4.65855519   -2.29957798   -0.72536935
 H                 -3.30055519   -7.38057798    1.04363065
 H                 -3.94855519   -7.94057798    3.39263065
 H                 -4.92855519   -7.29657798    5.55363065
 C                 -3.59155519   -3.63657798   -2.10836935
 C                 -3.04355519   -5.84457798   -1.16036935
 C                 -2.99355519   -4.98157798   -2.24236935
 C                 -3.47655519   -2.79357798   -3.16636935
 H                 -2.57555519   -6.86357798   -1.30536935
 C                 -2.33955519   -5.31457798   -3.46036935
 C                 -2.95455519   -3.09757798   -4.41136935
 H                 -3.93455519   -1.78257798   -3.07436935
 C                 -2.32455519   -4.41557798   -4.54536935
 H                 -1.90555519   -6.32657798   -3.59636935
 C                 -2.82955519   -2.22857798   -5.50236935
 C                 -1.70355519   -4.73257798   -5.78036935
 C                 -2.31755519   -2.54557798   -6.70736935
 H                 -3.28655519   -1.22257798   -5.42336935
 C                 -1.67555519   -3.87757798   -6.83636935
 H                 -1.29455519   -5.75757798   -5.87336935
 H                 -2.30555519   -1.86657798   -7.58436935
 H                 -1.18555519   -4.19657798   -7.90336935

 1 2 2.0 11 1.0 12 1.0
 2 3 1.5 13 1.0
 3 4 1.5 9 1.0
 4 5 1.5 14 1.0
 5 6 2.0 7 1.0
 6 15 1.0 19 1.5
 7 8 2.0 20 1.5
 8 9 2.0 16 1.0
 9 10 1.5
 10 11 2.0 17 1.0
 11 18 1.0
 12
 13
 14
 15
 16
 17
 18
 19 21 1.0 22 2.0
 20 21 2.0 23 1.0
 21 24 1.5
 22 25 2.0 26 1.0
 23
 24 27 1.5 28 1.0
 25 27 1.0 29 1.5
 26
 27 30 1.5
 28
 29 31 2.0 32 1.0
 30 33 2.0 34 1.0
 31 33 1.0 35 1.0
 32
 33 36 1.0
 34
 35
 36
 37 38 2.0 47 1.0 48 1.0
 38 39 1.5 49 1.0
 39 40 1.5 45 1.0
 40 41 1.5 50 1.0
 41 42 2.0 43 1.0
 42 51 1.0 55 1.5
 43 44 2.0 56 1.5
 44 45 2.0 52 1.0
 45 46 1.5
 46 47 2.0 53 1.0
 47 54 1.0
 48
 49
 50
 51
 52
 53
 54
 55 57 1.0 58 2.0
 56 57 2.0 59 1.0
 57 60 1.5
 58 61 2.0 62 1.0
 59
 60 63 1.5 64 1.0
 61 63 1.0 65 1.5
 62
 63 66 1.5
 64
 65 67 2.0 68 1.0
 66 69 2.0 70 1.0
 67 69 1.0 71 1.0
 68
 69 72 1.0
 70
 71
 72


