%chk=/oasis/projects/nsf/lhu120/cmw414/pent_y_stack/1_4A/dimer/dimer.chk
%nprocshared=24
%mem=110GB
#p b3lyp/6-311g(d,p) nosymm pop=full iop(3/33=1) punch=mo

c47

0 1
 C                 -8.14501410   -7.85050651    3.51737571
 C                 -8.11701410   -6.99450651    2.46137571
 C                 -7.49601410   -7.31250651    1.22637571
 C                 -7.48101410   -6.41350651    0.14137571
 C                 -6.82601410   -6.74650651   -1.07662429
 C                 -6.77701410   -5.88250651   -2.15862429
 C                 -6.22901410   -8.09050651   -1.21062429
 C                 -6.34401410   -8.93450651   -0.15262429
 C                 -6.86501410   -8.63050651    1.09237571
 C                 -6.99101410   -9.49950651    2.18337571
 C                 -7.50301410   -9.18250651    3.38837571
 H                 -8.63501410   -7.53150651    4.58437571
 H                 -8.52601410   -5.97050651    2.55437571
 H                 -7.91501410   -5.40050651    0.27737571
 H                 -7.24401410   -4.86450651   -2.01362429
 H                 -5.88601410   -9.94550651   -0.24462429
 H                 -6.53401410  -10.50550651    2.10437571
 H                 -7.51401410   -9.86150651    4.26537571
 C                 -6.17701410   -6.20150651   -3.39662429
 C                 -5.62901410   -8.40950651   -2.44862429
 C                 -5.57901410   -7.54650651   -3.53062429
 C                 -6.06201410   -5.35850651   -4.45462429
 H                 -5.16101410   -9.42850651   -2.59362429
 C                 -4.92501410   -7.87950651   -4.74862429
 C                 -5.54001410   -5.66250651   -5.69962429
 H                 -6.52001410   -4.34750651   -4.36262429
 C                 -4.91001410   -6.98050651   -5.83362429
 H                 -4.49101410   -8.89150651   -4.88462429
 C                 -5.41501410   -4.79350651   -6.79062429
 C                 -4.28901410   -7.29750651   -7.06862429
 C                 -4.90301410   -5.11050651   -7.99562429
 H                 -5.87201410   -3.78750651   -6.71162429
 C                 -4.26101410   -6.44250651   -8.12462429
 H                 -3.88001410   -8.32250651   -7.16162429
 H                 -4.89101410   -4.43150651   -8.87262429
 H                 -3.77101410   -6.76150651   -9.19162429
 C                 -5.55955519   -5.28557798    4.80563065
 C                 -5.53155519   -4.42957798    3.74963065
 C                 -4.91055519   -4.74757798    2.51463065
 C                 -4.89555519   -3.84857798    1.42963065
 C                 -4.24055519   -4.18157798    0.21163065
 C                 -4.19155519   -3.31757798   -0.87036935
 C                 -3.64355519   -5.52557798    0.07763065
 C                 -3.75855519   -6.36957798    1.13563065
 C                 -4.27955519   -6.06557798    2.38063065
 C                 -4.40555519   -6.93457798    3.47163065
 C                 -4.91755519   -6.61757798    4.67663065
 H                 -6.04955519   -4.96657798    5.87263065
 H                 -5.94055519   -3.40557798    3.84263065
 H                 -5.32955519   -2.83557798    1.56563065
 H                 -4.65855519   -2.29957798   -0.72536935
 H                 -3.30055519   -7.38057798    1.04363065
 H                 -3.94855519   -7.94057798    3.39263065
 H                 -4.92855519   -7.29657798    5.55363065
 C                 -3.59155519   -3.63657798   -2.10836935
 C                 -3.04355519   -5.84457798   -1.16036935
 C                 -2.99355519   -4.98157798   -2.24236935
 C                 -3.47655519   -2.79357798   -3.16636935
 H                 -2.57555519   -6.86357798   -1.30536935
 C                 -2.33955519   -5.31457798   -3.46036935
 C                 -2.95455519   -3.09757798   -4.41136935
 H                 -3.93455519   -1.78257798   -3.07436935
 C                 -2.32455519   -4.41557798   -4.54536935
 H                 -1.90555519   -6.32657798   -3.59636935
 C                 -2.82955519   -2.22857798   -5.50236935
 C                 -1.70355519   -4.73257798   -5.78036935
 C                 -2.31755519   -2.54557798   -6.70736935
 H                 -3.28655519   -1.22257798   -5.42336935
 C                 -1.67555519   -3.87757798   -6.83636935
 H                 -1.29455519   -5.75757798   -5.87336935
 H                 -2.30555519   -1.86657798   -7.58436935
 H                 -1.18555519   -4.19657798   -7.90336935

 1 2 2.0 11 1.0 12 1.0
 2 3 1.5 13 1.0
 3 4 1.5 9 1.0
 4 5 1.5 14 1.0
 5 6 2.0 7 1.0
 6 15 1.0 19 1.5
 7 8 2.0 20 1.5
 8 9 2.0 16 1.0
 9 10 1.5
 10 11 2.0 17 1.0
 11 18 1.0
 12
 13
 14
 15
 16
 17
 18
 19 21 1.0 22 2.0
 20 21 2.0 23 1.0
 21 24 1.5
 22 25 2.0 26 1.0
 23
 24 27 1.5 28 1.0
 25 27 1.0 29 1.5
 26
 27 30 1.5
 28
 29 31 2.0 32 1.0
 30 33 2.0 34 1.0
 31 33 1.0 35 1.0
 32
 33 36 1.0
 34
 35
 36
 37 38 2.0 47 1.0 48 1.0
 38 39 1.5 49 1.0
 39 40 1.5 45 1.0
 40 41 1.5 50 1.0
 41 42 2.0 43 1.0
 42 51 1.0 55 1.5
 43 44 2.0 56 1.5
 44 45 2.0 52 1.0
 45 46 1.5
 46 47 2.0 53 1.0
 47 54 1.0
 48
 49
 50
 51
 52
 53
 54
 55 57 1.0 58 2.0
 56 57 2.0 59 1.0
 57 60 1.5
 58 61 2.0 62 1.0
 59
 60 63 1.5 64 1.0
 61 63 1.0 65 1.5
 62
 63 66 1.5
 64
 65 67 2.0 68 1.0
 66 69 2.0 70 1.0
 67 69 1.0 71 1.0
 68
 69 72 1.0
 70
 71
 72


