%chk=/oasis/projects/nsf/lhu120/cmw414/rc_slip_x_new/2_4A/dimer/dimer.chk
%nprocshared=22
%mem=110GB
#p b3lyp/6-311g(d,p) nosymm pop=full iop(3/33=1) punch=mo

c47

2 1
 O                  1.86343256   -2.18814168   -0.63312396
 O                 -1.87688744    1.76594132   -0.63317696
 C                  3.69461456   -0.67140268   -0.87047896
 C                 -1.39648944   -0.60712468   -0.87219696
 C                  5.97175156   -1.62878468   -0.73581696
 C                  0.95630456   -1.17504168   -0.77241696
 C                  3.19421256   -1.96292068   -0.63793396
 C                  5.65376956    0.77013232   -1.23999596
 C                  1.38305156    0.18492932   -0.87218096
 C                 -3.20766744    1.54071032   -0.63799196
 C                 -2.81321944   -0.85705968   -1.03609996
 C                 -3.70805744    0.24918032   -0.87049696
 C                 -0.37497644   -1.59266368   -0.78251796
 C                  0.36153156    1.17047132   -0.78252296
 C                  5.10807156   -0.51188368   -0.94441996
 C                 -0.96975044    0.75284632   -0.77244796
 C                  5.39488456   -2.90675768   -0.47207296
 H                  6.04966056   -3.75780568   -0.31297796
 C                  4.74462556    1.84550032   -1.48258496
 H                  5.14791656    2.81613132   -1.75583896
 C                  3.38157356    1.68676032   -1.38711396
 H                  2.74968056    2.53497832   -1.59754396
 C                  4.02720956   -3.07643968   -0.43155996
 H                  3.57365556   -4.04439768   -0.25108496
 C                 -5.12151244    0.08963932   -0.94441896
 C                  2.79978656    0.43484332   -1.03611196
 C                  7.36964356   -1.42936968   -0.80567596
 H                  8.03205756   -2.27390668   -0.64047896
 C                  7.05237556    0.92132132   -1.30766596
 H                  7.47035056    1.89702532   -1.53701096
 C                 -0.64793744   -3.04866968   -0.59509396
 C                 -5.66719544   -1.19239768   -1.23993096
 C                  0.63446856    2.62647732   -0.59506596
 C                 -3.39498944   -2.10900768   -1.38701396
 H                 -2.76308144   -2.95723068   -1.59738596
 C                 -4.04067744    2.65422632   -0.43164996
 H                 -3.58713344    3.62219432   -0.25120396
 C                 -7.06580044   -1.34360768   -1.30758296
 H                 -7.48376544   -2.31932768   -1.53687896
 C                  7.89727656   -0.17032768   -1.08596396
 H                  8.97295756   -0.03707868   -1.13791896
 C                 -5.40835044    2.48452732   -0.47215796
 H                 -6.06313544    3.33557232   -0.31308796
 C                  1.19132356    3.07285032    0.61237504
 H                  1.43075056    2.35253132    1.38925504
 C                 -5.98520444    1.20653832   -0.73585396
 C                 -4.75804044   -2.26777068   -1.48246496
 H                 -5.16132144   -3.23842268   -1.75565596
 C                 -1.20495544   -3.49503768    0.61227204
 H                 -1.44447744   -2.77471768    1.38912204
 C                 -0.33428944   -3.98126668   -1.59421096
 H                  0.10494656   -3.63898068   -2.52632896
 C                 -7.38309444    1.00710232   -0.80569496
 H                 -8.04551744    1.85163832   -0.64052696
 C                 -1.46487044   -4.85334768    0.80924704
 H                 -1.90033044   -5.18805568    1.74603204
 C                 -1.16705344   -5.77762768   -0.19748196
 H                 -1.37357744   -6.83295368   -0.04661296
 C                  1.45120356    4.43116132    0.80938404
 H                  1.88654356    4.76587132    1.74622404
 C                  0.32092856    3.55907532   -1.59421596
 H                 -0.11819244    3.21678732   -2.52638696
 C                 -7.91071344   -0.25195768   -1.08592496
 H                 -8.98639244   -0.38522368   -1.13786596
 C                 -0.59829944   -5.33868768   -1.39838196
 H                 -0.36076744   -6.05187768   -2.18204296
 C                  1.15351056    5.35543932   -0.19738296
 H                  1.36000956    6.41076732   -0.04648696
 C                  0.58490756    4.91649632   -1.39835396
 H                  0.34746656    5.62968632   -2.18204196
 O                 14.60099365   -0.76411364    2.98937288
 O                 10.60455920    2.64916000    1.57415530
 C                 16.33005930    0.68163833    2.19552444
 C                 11.24681980    0.39237866    2.21742376
 C                 18.66371413   -0.00164253    2.65077103
 C                 13.63042143    0.06289433    2.49672419
 C                 15.91358220   -0.46584659    2.89001943
 C                 18.19401463    2.01793687    1.30511387
 C                 13.96663957    1.31751075    1.90134028
 C                  9.29213016    2.34735716    1.66455814
 C                  9.85292717    0.00348387    2.16967683
 C                  8.88334075    1.02947213    1.92641447
 C                 12.33047558   -0.41940743    2.65275326
 C                 12.88001693    2.19500646    1.63284962
 C                 17.73067245    0.89926458    2.05518241
 C                 11.57973732    1.72009414    1.80764983
 C                 18.16953164   -1.13035833    3.37003158
 H                 18.87716488   -1.81699911    3.82401964
 C                 17.21896220    2.86474144    0.69355574
 H                 17.56074048    3.69290284    0.07973800
 C                 15.86822628    2.65917459    0.85317586
 H                 15.18445835    3.32594605    0.35225615
 C                 16.81582417   -1.36653106    3.48257803
 H                 16.42525479   -2.22964383    4.00956670
 C                 15.36594896    1.58627120    1.64410601
 C                 20.04605787    0.25343575    2.49974275
 H                 20.76077375   -0.42440497    2.95694976
 C                 19.58026707    2.22911505    1.17379729
 H                 19.93562964    3.07907625    0.59883301
 C                 12.15266702   -1.72050075    3.36347767
 C                  7.03160044   -0.57760961    2.12938353
 C                 13.05161474    3.63345090    1.27088281
 C                  9.36225289   -1.32662233    2.30761528
 H                 10.05298078   -2.14757517    2.41705832
 C                  8.38306422    3.39925309    1.45595660
 H                  8.76766654    4.39461240    1.26473453
 C                  5.64758368   -0.83838788    2.13481573
 H                  5.29980130   -1.85640485    2.28310524
 C                 20.49266576    1.35515505    1.77248717
 H                 21.55770667    1.53335283    1.66535339
 C                  7.03069700    3.13337941    1.49313422
 H                  6.31780418    3.93658937    1.33514098
 C                 13.55729464    4.52814810    2.22537476
 H                 13.83161152    4.16075326    3.21000594
 C                  6.54523309    1.81140077    1.72171524
 C                  8.01467036   -1.60216242    2.28962624
 C                 11.60697168   -1.73044266    4.65551632
 H                 11.30691815   -0.79378181    5.11634380
 C                 12.54456656   -2.93050817    2.77301698
 H                 12.97519485   -2.92435758    1.77629566
 C                  5.16519829    1.50511842    1.74278620
 H                  4.44502135    2.30400012    1.59292312
 C                 11.43547192   -2.93648780    5.33918578
 H                 11.00802567   -2.93363817    6.33743554
 C                 11.81114638   -4.14264945    4.73874050
 H                 11.67336249   -5.08078306    5.26793565
 C                 13.72225734    5.87854370    1.90823443
 H                 14.11866259    6.56216570    2.65304629
 C                 12.69280105    4.11132103    0.00232459
 H                 12.29305472    3.42211909   -0.73533024
 C                  4.72785602    0.19801502    1.94859000
 C                 12.36894090   -4.13642839    3.45533221
 H                 12.66664366   -5.06910461    2.98557257
 C                 13.37993624    6.34698661    0.63549399
 H                 13.51271490    7.39568412    0.38703480
 C                 12.86193156    5.46075091   -0.31559440
 H                 12.59018615    5.81917191   -1.30396371
 C                  7.48517130    0.75765005    1.92920540
 H                  7.68682933   -2.61538708    2.39353025
 H                  3.67937480   -0.01524602    1.95892766

 1 6 1.0 7 1.0
 2 10 1.0 16 1.0
 3 7 1.5 15 1.5 26 1.5
 4 11 1.0 13 1.5 16 1.5
 5 15 1.5 17 1.5 27 1.5
 6 9 1.5 13 1.5
 7 23 1.5
 8 15 1.5 19 1.5 29 1.5
 9 14 1.5 26 1.0
 10 12 1.5 36 1.5
 11 12 1.5 34 1.5
 12 25 1.5
 13 31 1.0
 14 16 1.5 33 1.0
 15
 16
 17 18 1.0 23 2.0
 18
 19 20 1.0 21 2.0
 20
 21 22 1.0 26 1.5
 22
 23 24 1.0
 24
 25 32 1.5 46 1.5
 26
 27 28 1.0 40 1.5
 28
 29 30 1.0 40 1.5
 30
 31 49 1.5 51 1.5
 32 38 1.5 47 1.5
 33 44 1.5 61 1.5
 34 35 1.0 47 2.0
 35
 36 37 1.0 42 2.0
 37
 38 39 1.0 63 1.5
 39
 40 41 1.0
 41
 42 43 1.0 46 1.5
 43
 44 45 1.0 59 1.5
 45
 46 53 1.5
 47 48 1.0
 48
 49 50 1.0 55 1.5
 50
 51 52 1.0 65 1.5
 52
 53 54 1.0 63 1.5
 54
 55 56 1.0 57 1.5
 56
 57 58 1.0 65 1.5
 58
 59 60 1.0 67 1.5
 60
 61 62 1.0 69 1.5
 62
 63 64 1.0
 64
 65 66 1.0
 66
 67 68 1.0 69 1.5
 68
 69 70 1.0
 70
 71 76 1.0 77 1.0
 72 80 1.0 86 1.0
 73 77 1.5 85 1.5 95 1.5
 74 81 1.0 83 1.5 86 1.5
 75 85 1.5 87 1.5 96 1.5
 76 79 1.5 83 1.5
 77 93 1.5
 78 85 1.5 89 1.5 98 1.5
 79 84 1.5 95 1.0
 80 82 1.5 105 1.5
 81 82 1.5 103 1.5
 82 140 1.5
 83 100 1.0
 84 86 1.5 102 1.0
 85
 86
 87 88 1.0 93 2.0
 88
 89 90 1.0 91 2.0
 90
 91 92 1.0 95 1.5
 92
 93 94 1.0
 94
 95
 96 97 1.0 109 1.5
 97
 98 99 1.0 109 1.5
 99
 100 118 1.5 120 1.5
 101 107 1.5 116 1.5 140 1.5
 102 113 1.5 130 1.5
 103 104 1.0 116 2.0
 104
 105 106 1.0 111 2.0
 106
 107 108 1.0 132 1.5
 108
 109 110 1.0
 110
 111 112 1.0 115 1.5
 112
 113 114 1.0 128 1.5
 114
 115 122 1.5 140 1.5
 116 117 1.0
 117
 118 119 1.0 124 1.5
 119
 120 121 1.0 134 1.5
 121
 122 123 1.0 132 1.5
 123
 124 125 1.0 126 1.5
 125
 126 127 1.0 134 1.5
 127
 128 129 1.0 136 1.5
 129
 130 131 1.0 138 1.5
 131
 132 133 1.0
 133
 134 135 1.0
 135
 136 137 1.0 138 1.5
 137
 138 139 1.0
 139
 140































