%chk=/home/cmw414/pcpl_transfer_integral/rc_stack/3_0A/dimer/dimer.chk
%nprocshared=20
%mem=110GB
#p b3lyp/6-311g(d,p) nosymm pop=full iop(3/33=1) punch=mo

c47

2 1
 O                  1.86343256   -2.18814168   -0.63312396
 O                 -1.87688744    1.76594132   -0.63317696
 C                  3.69461456   -0.67140268   -0.87047896
 C                 -1.39648944   -0.60712468   -0.87219696
 C                  5.97175156   -1.62878468   -0.73581696
 C                  0.95630456   -1.17504168   -0.77241696
 C                  3.19421256   -1.96292068   -0.63793396
 C                  5.65376956    0.77013232   -1.23999596
 C                  1.38305156    0.18492932   -0.87218096
 C                 -3.20766744    1.54071032   -0.63799196
 C                 -2.81321944   -0.85705968   -1.03609996
 C                 -3.70805744    0.24918032   -0.87049696
 C                 -0.37497644   -1.59266368   -0.78251796
 C                  0.36153156    1.17047132   -0.78252296
 C                  5.10807156   -0.51188368   -0.94441996
 C                 -0.96975044    0.75284632   -0.77244796
 C                  5.39488456   -2.90675768   -0.47207296
 H                  6.04966056   -3.75780568   -0.31297796
 C                  4.74462556    1.84550032   -1.48258496
 H                  5.14791656    2.81613132   -1.75583896
 C                  3.38157356    1.68676032   -1.38711396
 H                  2.74968056    2.53497832   -1.59754396
 C                  4.02720956   -3.07643968   -0.43155996
 H                  3.57365556   -4.04439768   -0.25108496
 C                 -5.12151244    0.08963932   -0.94441896
 C                  2.79978656    0.43484332   -1.03611196
 C                  7.36964356   -1.42936968   -0.80567596
 H                  8.03205756   -2.27390668   -0.64047896
 C                  7.05237556    0.92132132   -1.30766596
 H                  7.47035056    1.89702532   -1.53701096
 C                 -0.64793744   -3.04866968   -0.59509396
 C                 -5.66719544   -1.19239768   -1.23993096
 C                  0.63446856    2.62647732   -0.59506596
 C                 -3.39498944   -2.10900768   -1.38701396
 H                 -2.76308144   -2.95723068   -1.59738596
 C                 -4.04067744    2.65422632   -0.43164996
 H                 -3.58713344    3.62219432   -0.25120396
 C                 -7.06580044   -1.34360768   -1.30758296
 H                 -7.48376544   -2.31932768   -1.53687896
 C                  7.89727656   -0.17032768   -1.08596396
 H                  8.97295756   -0.03707868   -1.13791896
 C                 -5.40835044    2.48452732   -0.47215796
 H                 -6.06313544    3.33557232   -0.31308796
 C                  1.19132356    3.07285032    0.61237504
 H                  1.43075056    2.35253132    1.38925504
 C                 -5.98520444    1.20653832   -0.73585396
 C                 -4.75804044   -2.26777068   -1.48246496
 H                 -5.16132144   -3.23842268   -1.75565596
 C                 -1.20495544   -3.49503768    0.61227204
 H                 -1.44447744   -2.77471768    1.38912204
 C                 -0.33428944   -3.98126668   -1.59421096
 H                  0.10494656   -3.63898068   -2.52632896
 C                 -7.38309444    1.00710232   -0.80569496
 H                 -8.04551744    1.85163832   -0.64052696
 C                 -1.46487044   -4.85334768    0.80924704
 H                 -1.90033044   -5.18805568    1.74603204
 C                 -1.16705344   -5.77762768   -0.19748196
 H                 -1.37357744   -6.83295368   -0.04661296
 C                  1.45120356    4.43116132    0.80938404
 H                  1.88654356    4.76587132    1.74622404
 C                  0.32092856    3.55907532   -1.59421596
 H                 -0.11819244    3.21678732   -2.52638696
 C                 -7.91071344   -0.25195768   -1.08592496
 H                 -8.98639244   -0.38522368   -1.13786596
 C                 -0.59829944   -5.33868768   -1.39838196
 H                 -0.36076744   -6.05187768   -2.18204296
 C                  1.15351056    5.35543932   -0.19738296
 H                  1.36000956    6.41076732   -0.04648696
 C                  0.58490756    4.91649632   -1.39835396
 H                  0.34746656    5.62968632   -2.18204196
 O                 12.24913308   -1.24197860    3.00929613
 O                  8.25269863    2.17129504    1.59407855
 C                 13.97819873    0.20377337    2.21544769
 C                  8.89495923   -0.08548630    2.23734701
 C                 16.31185356   -0.47950749    2.67069428
 C                 11.27856086   -0.41497063    2.51664744
 C                 13.56172163   -0.94371155    2.90994268
 C                 15.84215406    1.54007191    1.32503712
 C                 11.61477900    0.83964579    1.92126353
 C                  6.94026959    1.86949220    1.68448139
 C                  7.50106660   -0.47438109    2.18960008
 C                  6.53148018    0.55160717    1.94633772
 C                  9.97861501   -0.89727239    2.67267651
 C                 10.52815636    1.71714150    1.65277287
 C                 15.37881188    0.42139962    2.07510566
 C                  9.22787675    1.24222918    1.82757308
 C                 15.81767107   -1.60822329    3.38995483
 H                 16.52530431   -2.29486407    3.84394289
 C                 14.86710163    2.38687648    0.71347899
 H                 15.20887991    3.21503788    0.09966125
 C                 13.51636571    2.18130963    0.87309911
 H                 12.83259778    2.84808109    0.37217940
 C                 14.46396360   -1.84439602    3.50250128
 H                 14.07339422   -2.70750879    4.02948995
 C                 13.01408839    1.10840624    1.66402926
 C                 17.69419730   -0.22442921    2.51966600
 H                 18.40891318   -0.90226993    2.97687301
 C                 17.22840650    1.75125009    1.19372054
 H                 17.58376907    2.60121129    0.61875626
 C                  9.80080645   -2.19836571    3.38340092
 C                  4.67973987   -1.05547457    2.14930678
 C                 10.69975417    3.15558594    1.29080606
 C                  7.01039232   -1.80448729    2.32753853
 H                  7.70112021   -2.62544013    2.43698157
 C                  6.03120365    2.92138813    1.47587985
 H                  6.41580597    3.91674744    1.28465778
 C                  3.29572311   -1.31625284    2.15473898
 H                  2.94794073   -2.33426981    2.30302849
 C                 18.14080519    0.87729009    1.79241042
 H                 19.20584610    1.05548787    1.68527664
 C                  4.67883643    2.65551445    1.51305747
 H                  3.96594361    3.45872441    1.35506423
 C                 11.20543407    4.05028314    2.24529801
 H                 11.47975095    3.68288830    3.22992919
 C                  4.19337252    1.33353581    1.74163849
 C                  5.66280979   -2.08002738    2.30954949
 H                  5.33006108   -3.10841972    2.41500891
 C                  9.25511111   -2.20830762    4.67543957
 H                  8.95505758   -1.27164677    5.13626705
 C                 10.19270599   -3.40837313    2.79294023
 H                 10.62333428   -3.40222254    1.79621891
 C                  2.81333772    1.02725346    1.76270945
 H                  2.09316078    1.82613516    1.61284637
 C                  9.08361135   -3.41435276    5.35910903
 H                  8.65616510   -3.41150313    6.35735879
 C                  9.45928581   -4.62051441    4.75866375
 H                  9.32150192   -5.55864802    5.28785890
 C                 11.37039677    5.40067874    1.92815768
 H                 11.76680202    6.08430074    2.67296954
 C                 10.34094048    3.63345607    0.02224784
 H                  9.94119415    2.94425413   -0.71540699
 C                  2.37599545   -0.27984994    1.96851325
 H                  1.31267231   -0.49612983    1.97899725
 C                 10.01708033   -4.61429335    3.47525546
 H                 10.31478309   -5.54696957    3.00549582
 C                 11.02807567    5.86912165    0.65541724
 H                 11.16085433    6.91781916    0.40695805
 C                 10.51007099    4.98288595   -0.29567115
 H                 10.23832558    5.34130695   -1.28404046
 C                  5.13331073    0.27978509    1.94912865

 1 6 1.0 7 1.0
 2 10 1.0 16 1.0
 3 7 1.5 15 1.5 26 1.5
 4 11 1.0 13 1.5 16 1.5
 5 15 1.5 17 1.5 27 1.5
 6 9 1.5 13 1.5
 7 23 1.5
 8 15 1.5 19 1.5 29 1.5
 9 14 1.5 26 1.0
 10 12 1.5 36 1.5
 11 12 1.5 34 1.5
 12 25 1.5
 13 31 1.0
 14 16 1.5 33 1.0
 15
 16
 17 18 1.0 23 2.0
 18
 19 20 1.0 21 2.0
 20
 21 22 1.0 26 1.5
 22
 23 24 1.0
 24
 25 32 1.5 46 1.5
 26
 27 28 1.0 40 1.5
 28
 29 30 1.0 40 1.5
 30
 31 49 1.5 51 1.5
 32 38 1.5 47 1.5
 33 44 1.5 61 1.5
 34 35 1.0 47 2.0
 35
 36 37 1.0 42 2.0
 37
 38 39 1.0 63 1.5
 39
 40 41 1.0
 41
 42 43 1.0 46 1.5
 43
 44 45 1.0 59 1.5
 45
 46 53 1.5
 47 48 1.0
 48
 49 50 1.0 55 1.5
 50
 51 52 1.0 65 1.5
 52
 53 54 1.0 63 1.5
 54
 55 56 1.0 57 1.5
 56
 57 58 1.0 65 1.5
 58
 59 60 1.0 67 1.5
 60
 61 62 1.0 69 1.5
 62
 63 64 1.0
 64
 65 66 1.0
 66
 67 68 1.0 69 1.5
 68
 69 70 1.0
 70
 71 76 1.0 77 1.0
 72 80 1.0 86 1.0
 73 77 1.5 85 1.5 95 1.5
 74 81 1.0 83 1.5 86 1.5
 75 85 1.5 87 1.5 96 1.5
 76 79 1.5 83 1.5
 77 93 1.5
 78 85 1.5 89 1.5 98 1.5
 79 84 1.5 95 1.0
 80 82 1.5 105 1.5
 81 82 1.5 103 1.5
 82 140 1.5
 83 100 1.0
 84 86 1.5 102 1.0
 85
 86
 87 88 1.0 93 2.0
 88
 89 90 1.0 91 2.0
 90
 91 92 1.0 95 1.5
 92
 93 94 1.0
 94
 95
 96 97 1.0 109 1.5
 97
 98 99 1.0 109 1.5
 99
 100 118 1.5 120 1.5
 101 107 1.5 116 1.5 140 1.5
 102 113 1.5 130 1.5
 103 104 1.0 116 2.0
 104
 105 106 1.0 111 2.0
 106
 107 108 1.0 132 1.5
 108
 109 110 1.0
 110
 111 112 1.0 115 1.5
 112
 113 114 1.0 128 1.5
 114
 115 122 1.5 140 1.5
 116 117 1.0
 117
 118 119 1.0 124 1.5
 119
 120 121 1.0 134 1.5
 121
 122 123 1.0 132 1.5
 123
 124 125 1.0 126 1.5
 125
 126 127 1.0 134 1.5
 127
 128 129 1.0 136 1.5
 129
 130 131 1.0 138 1.5
 131
 132 133 1.0
 133
 134 135 1.0
 135
 136 137 1.0 138 1.5
 137
 138 139 1.0
 139
 140

