%chk=/oasis/projects/nsf/lhu120/cmw414/pent_stack/3_3A/dimer/dimer.chk
%nprocshared=24
%mem=110GB
#p b3lyp/6-311g(d,p) nosymm pop=full iop(3/33=1) punch=mo

c47

0 1
 C                 -8.71269653   -6.57702505    3.64379411
 C                 -8.68469653   -5.72102505    2.58779411
 C                 -8.06369653   -6.03902505    1.35279411
 C                 -8.04869653   -5.14002505    0.26779411
 C                 -7.39369653   -5.47302505   -0.95020589
 C                 -7.34469653   -4.60902505   -2.03220589
 C                 -6.79669653   -6.81702505   -1.08420589
 C                 -6.91169653   -7.66102505   -0.02620589
 C                 -7.43269653   -7.35702505    1.21879411
 C                 -7.55869653   -8.22602505    2.30979411
 C                 -8.07069653   -7.90902505    3.51479411
 H                 -9.20269653   -6.25802505    4.71079411
 H                 -9.09369653   -4.69702505    2.68079411
 H                 -8.48269653   -4.12702505    0.40379411
 H                 -7.81169653   -3.59102505   -1.88720589
 H                 -6.45369653   -8.67202505   -0.11820589
 H                 -7.10169653   -9.23202505    2.23079411
 H                 -8.08169653   -8.58802505    4.39179411
 C                 -6.74469653   -4.92802505   -3.27020589
 C                 -6.19669653   -7.13602505   -2.32220589
 C                 -6.14669653   -6.27302505   -3.40420589
 C                 -6.62969653   -4.08502505   -4.32820589
 H                 -5.72869653   -8.15502505   -2.46720589
 C                 -5.49269653   -6.60602505   -4.62220589
 C                 -6.10769653   -4.38902505   -5.57320589
 H                 -7.08769653   -3.07402505   -4.23620589
 C                 -5.47769653   -5.70702505   -5.70720589
 H                 -5.05869653   -7.61802505   -4.75820589
 C                 -5.98269653   -3.52002505   -6.66420589
 C                 -4.85669653   -6.02402505   -6.94220589
 C                 -5.47069653   -3.83702505   -7.86920589
 H                 -6.43969653   -2.51402505   -6.58520589
 C                 -4.82869653   -5.16902505   -7.99820589
 H                 -4.44769653   -7.04902505   -7.03520589
 H                 -5.45869653   -3.15802505   -8.74620589
 H                 -4.33869653   -5.48802505   -9.06520589
 C                 -5.82231996   -5.39319980    4.70880984
 C                 -5.79431996   -4.53719980    3.65280984
 C                 -5.17331996   -4.85519980    2.41780984
 C                 -5.15831996   -3.95619980    1.33280984
 C                 -4.50331996   -4.28919980    0.11480984
 C                 -4.45431996   -3.42519980   -0.96719016
 C                 -3.90631996   -5.63319980   -0.01919016
 C                 -4.02131996   -6.47719980    1.03880984
 C                 -4.54231996   -6.17319980    2.28380984
 C                 -4.66831996   -7.04219980    3.37480984
 C                 -5.18031996   -6.72519980    4.57980984
 H                 -6.31231996   -5.07419980    5.77580984
 H                 -6.20331996   -3.51319980    3.74580984
 H                 -5.59231996   -2.94319980    1.46880984
 H                 -4.92131996   -2.40719980   -0.82219016
 H                 -3.56331996   -7.48819980    0.94680984
 H                 -4.21131996   -8.04819980    3.29580984
 H                 -5.19131996   -7.40419980    5.45680984
 C                 -3.85431996   -3.74419980   -2.20519016
 C                 -3.30631996   -5.95219980   -1.25719016
 C                 -3.25631996   -5.08919980   -2.33919016
 C                 -3.73931996   -2.90119980   -3.26319016
 H                 -2.83831996   -6.97119980   -1.40219016
 C                 -2.60231996   -5.42219980   -3.55719016
 C                 -3.21731996   -3.20519980   -4.50819016
 H                 -4.19731996   -1.89019980   -3.17119016
 C                 -2.58731996   -4.52319980   -4.64219016
 H                 -2.16831996   -6.43419980   -3.69319016
 C                 -3.09231996   -2.33619980   -5.59919016
 C                 -1.96631996   -4.84019980   -5.87719016
 C                 -2.58031996   -2.65319980   -6.80419016
 H                 -3.54931996   -1.33019980   -5.52019016
 C                 -1.93831996   -3.98519980   -6.93319016
 H                 -1.55731996   -5.86519980   -5.97019016
 H                 -2.56831996   -1.97419980   -7.68119016
 H                 -1.44831996   -4.30419980   -8.00019016

 1 2 2.0 11 1.0 12 1.0
 2 3 1.5 13 1.0
 3 4 1.5 9 1.0
 4 5 1.5 14 1.0
 5 6 2.0 7 1.0
 6 15 1.0 19 1.5
 7 8 2.0 20 1.5
 8 9 2.0 16 1.0
 9 10 1.5
 10 11 2.0 17 1.0
 11 18 1.0
 12
 13
 14
 15
 16
 17
 18
 19 21 1.0 22 2.0
 20 21 2.0 23 1.0
 21 24 1.5
 22 25 2.0 26 1.0
 23
 24 27 1.5 28 1.0
 25 27 1.0 29 1.5
 26
 27 30 1.5
 28
 29 31 2.0 32 1.0
 30 33 2.0 34 1.0
 31 33 1.0 35 1.0
 32
 33 36 1.0
 34
 35
 36
 37 38 2.0 47 1.0 48 1.0
 38 39 1.5 49 1.0
 39 40 1.5 45 1.0
 40 41 1.5 50 1.0
 41 42 2.0 43 1.0
 42 51 1.0 55 1.5
 43 44 2.0 56 1.5
 44 45 2.0 52 1.0
 45 46 1.5
 46 47 2.0 53 1.0
 47 54 1.0
 48
 49
 50
 51
 52
 53
 54
 55 57 1.0 58 2.0
 56 57 2.0 59 1.0
 57 60 1.5
 58 61 2.0 62 1.0
 59
 60 63 1.5 64 1.0
 61 63 1.0 65 1.5
 62
 63 66 1.5
 64
 65 67 2.0 68 1.0
 66 69 2.0 70 1.0
 67 69 1.0 71 1.0
 68
 69 72 1.0
 70
 71
 72


