%chk=/oasis/projects/nsf/lhu120/cmw414/pent_slip_x/n_1_0A/dimer/dimer.chk
%nprocshared=24
%mem=110GB
#p b3lyp/6-311g(d,p) nosymm pop=full iop(3/33=1) punch=mo

c47

0 1
 C                 -8.97908007   -6.79631655    4.58238403
 C                 -8.95108007   -5.94031655    3.52638403
 C                 -8.33008007   -6.25831655    2.29138403
 C                 -8.31508007   -5.35931655    1.20638403
 C                 -7.66008007   -5.69231655   -0.01161597
 C                 -7.61108007   -4.82831655   -1.09361597
 C                 -7.06308007   -7.03631655   -0.14561597
 C                 -7.17808007   -7.88031655    0.91238403
 C                 -7.69908007   -7.57631655    2.15738403
 C                 -7.82508007   -8.44531655    3.24838403
 C                 -8.33708007   -8.12831655    4.45338403
 H                 -9.46908007   -6.47731655    5.64938403
 H                 -9.36008007   -4.91631655    3.61938403
 H                 -8.74908007   -4.34631655    1.34238403
 H                 -8.07808007   -3.81031655   -0.94861597
 H                 -6.72008007   -8.89131655    0.82038403
 H                 -7.36808007   -9.45131655    3.16938403
 H                 -8.34808007   -8.80731655    5.33038403
 C                 -7.01108007   -5.14731655   -2.33161597
 C                 -6.46308007   -7.35531655   -1.38361597
 C                 -6.41308007   -6.49231655   -2.46561597
 C                 -6.89608007   -4.30431655   -3.38961597
 H                 -5.99508007   -8.37431655   -1.52861597
 C                 -5.75908007   -6.82531655   -3.68361597
 C                 -6.37408007   -4.60831655   -4.63461597
 H                 -7.35408007   -3.29331655   -3.29761597
 C                 -5.74408007   -5.92631655   -4.76861597
 H                 -5.32508007   -7.83731655   -3.81961597
 C                 -6.24908007   -3.73931655   -5.72561597
 C                 -5.12308007   -6.24331655   -6.00361597
 C                 -5.73708007   -4.05631655   -6.93061597
 H                 -6.70608007   -2.73331655   -5.64661597
 C                 -5.09508007   -5.38831655   -7.05961597
 H                 -4.71408007   -7.26831655   -6.09661597
 H                 -5.72508007   -3.37731655   -7.80761597
 H                 -4.60508007   -5.70731655   -8.12661597
 C                 -5.55955519   -5.28557798    4.80563065
 C                 -5.53155519   -4.42957798    3.74963065
 C                 -4.91055519   -4.74757798    2.51463065
 C                 -4.89555519   -3.84857798    1.42963065
 C                 -4.24055519   -4.18157798    0.21163065
 C                 -4.19155519   -3.31757798   -0.87036935
 C                 -3.64355519   -5.52557798    0.07763065
 C                 -3.75855519   -6.36957798    1.13563065
 C                 -4.27955519   -6.06557798    2.38063065
 C                 -4.40555519   -6.93457798    3.47163065
 C                 -4.91755519   -6.61757798    4.67663065
 H                 -6.04955519   -4.96657798    5.87263065
 H                 -5.94055519   -3.40557798    3.84263065
 H                 -5.32955519   -2.83557798    1.56563065
 H                 -4.65855519   -2.29957798   -0.72536935
 H                 -3.30055519   -7.38057798    1.04363065
 H                 -3.94855519   -7.94057798    3.39263065
 H                 -4.92855519   -7.29657798    5.55363065
 C                 -3.59155519   -3.63657798   -2.10836935
 C                 -3.04355519   -5.84457798   -1.16036935
 C                 -2.99355519   -4.98157798   -2.24236935
 C                 -3.47655519   -2.79357798   -3.16636935
 H                 -2.57555519   -6.86357798   -1.30536935
 C                 -2.33955519   -5.31457798   -3.46036935
 C                 -2.95455519   -3.09757798   -4.41136935
 H                 -3.93455519   -1.78257798   -3.07436935
 C                 -2.32455519   -4.41557798   -4.54536935
 H                 -1.90555519   -6.32657798   -3.59636935
 C                 -2.82955519   -2.22857798   -5.50236935
 C                 -1.70355519   -4.73257798   -5.78036935
 C                 -2.31755519   -2.54557798   -6.70736935
 H                 -3.28655519   -1.22257798   -5.42336935
 C                 -1.67555519   -3.87757798   -6.83636935
 H                 -1.29455519   -5.75757798   -5.87336935
 H                 -2.30555519   -1.86657798   -7.58436935
 H                 -1.18555519   -4.19657798   -7.90336935

 1 2 2.0 11 1.0 12 1.0
 2 3 1.5 13 1.0
 3 4 1.5 9 1.0
 4 5 1.5 14 1.0
 5 6 2.0 7 1.0
 6 15 1.0 19 1.5
 7 8 2.0 20 1.5
 8 9 2.0 16 1.0
 9 10 1.5
 10 11 2.0 17 1.0
 11 18 1.0
 12
 13
 14
 15
 16
 17
 18
 19 21 1.0 22 2.0
 20 21 2.0 23 1.0
 21 24 1.5
 22 25 2.0 26 1.0
 23
 24 27 1.5 28 1.0
 25 27 1.0 29 1.5
 26
 27 30 1.5
 28
 29 31 2.0 32 1.0
 30 33 2.0 34 1.0
 31 33 1.0 35 1.0
 32
 33 36 1.0
 34
 35
 36
 37 38 2.0 47 1.0 48 1.0
 38 39 1.5 49 1.0
 39 40 1.5 45 1.0
 40 41 1.5 50 1.0
 41 42 2.0 43 1.0
 42 51 1.0 55 1.5
 43 44 2.0 56 1.5
 44 45 2.0 52 1.0
 45 46 1.5
 46 47 2.0 53 1.0
 47 54 1.0
 48
 49
 50
 51
 52
 53
 54
 55 57 1.0 58 2.0
 56 57 2.0 59 1.0
 57 60 1.5
 58 61 2.0 62 1.0
 59
 60 63 1.5 64 1.0
 61 63 1.0 65 1.5
 62
 63 66 1.5
 64
 65 67 2.0 68 1.0
 66 69 2.0 70 1.0
 67 69 1.0 71 1.0
 68
 69 72 1.0
 70
 71
 72

