%chk=/oasis/projects/nsf/lhu120/cmw414/pent_stack/3_0A/dimer/dimer.chk
%nprocshared=24
%mem=110GB
#p b3lyp/6-311g(d,p) nosymm pop=full iop(3/33=1) punch=mo

c47

0 1
 C                 -8.71269653   -6.57702505    3.64379411
 C                 -8.68469653   -5.72102505    2.58779411
 C                 -8.06369653   -6.03902505    1.35279411
 C                 -8.04869653   -5.14002505    0.26779411
 C                 -7.39369653   -5.47302505   -0.95020589
 C                 -7.34469653   -4.60902505   -2.03220589
 C                 -6.79669653   -6.81702505   -1.08420589
 C                 -6.91169653   -7.66102505   -0.02620589
 C                 -7.43269653   -7.35702505    1.21879411
 C                 -7.55869653   -8.22602505    2.30979411
 C                 -8.07069653   -7.90902505    3.51479411
 H                 -9.20269653   -6.25802505    4.71079411
 H                 -9.09369653   -4.69702505    2.68079411
 H                 -8.48269653   -4.12702505    0.40379411
 H                 -7.81169653   -3.59102505   -1.88720589
 H                 -6.45369653   -8.67202505   -0.11820589
 H                 -7.10169653   -9.23202505    2.23079411
 H                 -8.08169653   -8.58802505    4.39179411
 C                 -6.74469653   -4.92802505   -3.27020589
 C                 -6.19669653   -7.13602505   -2.32220589
 C                 -6.14669653   -6.27302505   -3.40420589
 C                 -6.62969653   -4.08502505   -4.32820589
 H                 -5.72869653   -8.15502505   -2.46720589
 C                 -5.49269653   -6.60602505   -4.62220589
 C                 -6.10769653   -4.38902505   -5.57320589
 H                 -7.08769653   -3.07402505   -4.23620589
 C                 -5.47769653   -5.70702505   -5.70720589
 H                 -5.05869653   -7.61802505   -4.75820589
 C                 -5.98269653   -3.52002505   -6.66420589
 C                 -4.85669653   -6.02402505   -6.94220589
 C                 -5.47069653   -3.83702505   -7.86920589
 H                 -6.43969653   -2.51402505   -6.58520589
 C                 -4.82869653   -5.16902505   -7.99820589
 H                 -4.44769653   -7.04902505   -7.03520589
 H                 -5.45869653   -3.15802505   -8.74620589
 H                 -4.33869653   -5.48802505   -9.06520589
 C                 -6.08508174   -5.50082039    4.61199012
 C                 -6.05708174   -4.64482039    3.55599012
 C                 -5.43608174   -4.96282039    2.32099012
 C                 -5.42108174   -4.06382039    1.23599012
 C                 -4.76608174   -4.39682039    0.01799012
 C                 -4.71708174   -3.53282039   -1.06400988
 C                 -4.16908174   -5.74082039   -0.11600988
 C                 -4.28408174   -6.58482039    0.94199012
 C                 -4.80508174   -6.28082039    2.18699012
 C                 -4.93108174   -7.14982039    3.27799012
 C                 -5.44308174   -6.83282039    4.48299012
 H                 -6.57508174   -5.18182039    5.67899012
 H                 -6.46608174   -3.62082039    3.64899012
 H                 -5.85508174   -3.05082039    1.37199012
 H                 -5.18408174   -2.51482039   -0.91900988
 H                 -3.82608174   -7.59582039    0.84999012
 H                 -4.47408174   -8.15582039    3.19899012
 H                 -5.45408174   -7.51182039    5.35999012
 C                 -4.11708174   -3.85182039   -2.30200988
 C                 -3.56908174   -6.05982039   -1.35400988
 C                 -3.51908174   -5.19682039   -2.43600988
 C                 -4.00208174   -3.00882039   -3.36000988
 H                 -3.10108174   -7.07882039   -1.49900988
 C                 -2.86508174   -5.52982039   -3.65400988
 C                 -3.48008174   -3.31282039   -4.60500988
 H                 -4.46008174   -1.99782039   -3.26800988
 C                 -2.85008174   -4.63082039   -4.73900988
 H                 -2.43108174   -6.54182039   -3.79000988
 C                 -3.35508174   -2.44382039   -5.69600988
 C                 -2.22908174   -4.94782039   -5.97400988
 C                 -2.84308174   -2.76082039   -6.90100988
 H                 -3.81208174   -1.43782039   -5.61700988
 C                 -2.20108174   -4.09282039   -7.03000988
 H                 -1.82008174   -5.97282039   -6.06700988
 H                 -2.83108174   -2.08182039   -7.77800988
 H                 -1.71108174   -4.41182039   -8.09700988

 1 2 2.0 11 1.0 12 1.0
 2 3 1.5 13 1.0
 3 4 1.5 9 1.0
 4 5 1.5 14 1.0
 5 6 2.0 7 1.0
 6 15 1.0 19 1.5
 7 8 2.0 20 1.5
 8 9 2.0 16 1.0
 9 10 1.5
 10 11 2.0 17 1.0
 11 18 1.0
 12
 13
 14
 15
 16
 17
 18
 19 21 1.0 22 2.0
 20 21 2.0 23 1.0
 21 24 1.5
 22 25 2.0 26 1.0
 23
 24 27 1.5 28 1.0
 25 27 1.0 29 1.5
 26
 27 30 1.5
 28
 29 31 2.0 32 1.0
 30 33 2.0 34 1.0
 31 33 1.0 35 1.0
 32
 33 36 1.0
 34
 35
 36
 37 38 2.0 47 1.0 48 1.0
 38 39 1.5 49 1.0
 39 40 1.5 45 1.0
 40 41 1.5 50 1.0
 41 42 2.0 43 1.0
 42 51 1.0 55 1.5
 43 44 2.0 56 1.5
 44 45 2.0 52 1.0
 45 46 1.5
 46 47 2.0 53 1.0
 47 54 1.0
 48
 49
 50
 51
 52
 53
 54
 55 57 1.0 58 2.0
 56 57 2.0 59 1.0
 57 60 1.5
 58 61 2.0 62 1.0
 59
 60 63 1.5 64 1.0
 61 63 1.0 65 1.5
 62
 63 66 1.5
 64
 65 67 2.0 68 1.0
 66 69 2.0 70 1.0
 67 69 1.0 71 1.0
 68
 69 72 1.0
 70
 71
 72


