%chk=/home/cmw414/pcpl_transfer_integral/rc_stack/3_1A/dimer/dimer.chk
%nprocshared=20
%mem=110GB
#p b3lyp/6-311g(d,p) nosymm pop=full iop(3/33=1) punch=mo

c47

2 1
 O                  1.86259125   -2.21453064   -0.72957558
 O                 -1.87772875    1.73955236   -0.72962858
 C                  3.69377325   -0.69779164   -0.96693058
 C                 -1.39733075   -0.63351364   -0.96864858
 C                  5.97091025   -1.65517364   -0.83226858
 C                  0.95546325   -1.20143064   -0.86886858
 C                  3.19337125   -1.98930964   -0.73438558
 C                  5.65292825    0.74374336   -1.33644758
 C                  1.38221025    0.15854036   -0.96863258
 C                 -3.20850875    1.51432136   -0.73444358
 C                 -2.81406075   -0.88344864   -1.13255158
 C                 -3.70889875    0.22279136   -0.96694858
 C                 -0.37581775   -1.61905264   -0.87896958
 C                  0.36069025    1.14408236   -0.87897458
 C                  5.10723025   -0.53827264   -1.04087158
 C                 -0.97059175    0.72645736   -0.86889958
 C                  5.39404325   -2.93314664   -0.56852458
 H                  6.04881925   -3.78419464   -0.40942958
 C                  4.74378425    1.81911136   -1.57903658
 H                  5.14707525    2.78974236   -1.85229058
 C                  3.38073225    1.66037136   -1.48356558
 H                  2.74883925    2.50858936   -1.69399558
 C                  4.02636825   -3.10282864   -0.52801158
 H                  3.57281425   -4.07078664   -0.34753658
 C                 -5.12235375    0.06325036   -1.04087058
 C                  2.79894525    0.40845436   -1.13256358
 C                  7.36880225   -1.45575864   -0.90212758
 H                  8.03121625   -2.30029564   -0.73693058
 C                  7.05153425    0.89493236   -1.40411758
 H                  7.46950925    1.87063636   -1.63346258
 C                 -0.64877875   -3.07505864   -0.69154558
 C                 -5.66803675   -1.21878664   -1.33638258
 C                  0.63362725    2.60008836   -0.69151758
 C                 -3.39583075   -2.13539664   -1.48346558
 H                 -2.76392275   -2.98361964   -1.69383758
 C                 -4.04151875    2.62783736   -0.52810158
 H                 -3.58797475    3.59580536   -0.34765558
 C                 -7.06664175   -1.36999664   -1.40403458
 H                 -7.48460675   -2.34571664   -1.63333058
 C                  7.89643525   -0.19671664   -1.18241558
 H                  8.97211625   -0.06346764   -1.23437058
 C                 -5.40919175    2.45813836   -0.56860958
 H                 -6.06397675    3.30918336   -0.40953958
 C                  1.19048225    3.04646136    0.51592342
 H                  1.42990925    2.32614236    1.29280342
 C                 -5.98604575    1.18014936   -0.83230558
 C                 -4.75888175   -2.29415964   -1.57891658
 H                 -5.16216275   -3.26481164   -1.85210758
 C                 -1.20579675   -3.52142664    0.51582042
 H                 -1.44531875   -2.80110664    1.29267042
 C                 -0.33513075   -4.00765564   -1.69066258
 H                  0.10410525   -3.66536964   -2.62278058
 C                 -7.38393575    0.98071336   -0.90214658
 H                 -8.04635875    1.82524936   -0.73697858
 C                 -1.46571175   -4.87973664    0.71279542
 H                 -1.90117175   -5.21444464    1.64958042
 C                 -1.16789475   -5.80401664   -0.29393358
 H                 -1.37441875   -6.85934264   -0.14306458
 C                  1.45036225    4.40477236    0.71293242
 H                  1.88570225    4.73948236    1.64977242
 C                  0.32008725    3.53268636   -1.69066758
 H                 -0.11903375    3.19039836   -2.62283858
 C                 -7.91155475   -0.27834664   -1.18237658
 H                 -8.98723375   -0.41161264   -1.23431758
 C                 -0.59914075   -5.36507664   -1.49483358
 H                 -0.36160875   -6.07826664   -2.27849458
 C                  1.15266925    5.32905036   -0.29383458
 H                  1.35916825    6.38437836   -0.14293858
 C                  0.58406625    4.89010736   -1.49480558
 H                  0.34662525    5.60329736   -2.27849358
 O                 12.24913308   -1.24197860    3.00929613
 O                  8.25269863    2.17129504    1.59407855
 C                 13.97819873    0.20377337    2.21544769
 C                  8.89495923   -0.08548630    2.23734701
 C                 16.31185356   -0.47950749    2.67069428
 C                 11.27856086   -0.41497063    2.51664744
 C                 13.56172163   -0.94371155    2.90994268
 C                 15.84215406    1.54007191    1.32503712
 C                 11.61477900    0.83964579    1.92126353
 C                  6.94026959    1.86949220    1.68448139
 C                  7.50106660   -0.47438109    2.18960008
 C                  6.53148018    0.55160717    1.94633772
 C                  9.97861501   -0.89727239    2.67267651
 C                 10.52815636    1.71714150    1.65277287
 C                 15.37881188    0.42139962    2.07510566
 C                  9.22787675    1.24222918    1.82757308
 C                 15.81767107   -1.60822329    3.38995483
 H                 16.52530431   -2.29486407    3.84394289
 C                 14.86710163    2.38687648    0.71347899
 H                 15.20887991    3.21503788    0.09966125
 C                 13.51636571    2.18130963    0.87309911
 H                 12.83259778    2.84808109    0.37217940
 C                 14.46396360   -1.84439602    3.50250128
 H                 14.07339422   -2.70750879    4.02948995
 C                 13.01408839    1.10840624    1.66402926
 C                 17.69419730   -0.22442921    2.51966600
 H                 18.40891318   -0.90226993    2.97687301
 C                 17.22840650    1.75125009    1.19372054
 H                 17.58376907    2.60121129    0.61875626
 C                  9.80080645   -2.19836571    3.38340092
 C                  4.67973987   -1.05547457    2.14930678
 C                 10.69975417    3.15558594    1.29080606
 C                  7.01039232   -1.80448729    2.32753853
 H                  7.70112021   -2.62544013    2.43698157
 C                  6.03120365    2.92138813    1.47587985
 H                  6.41580597    3.91674744    1.28465778
 C                  3.29572311   -1.31625284    2.15473898
 H                  2.94794073   -2.33426981    2.30302849
 C                 18.14080519    0.87729009    1.79241042
 H                 19.20584610    1.05548787    1.68527664
 C                  4.67883643    2.65551445    1.51305747
 H                  3.96594361    3.45872441    1.35506423
 C                 11.20543407    4.05028314    2.24529801
 H                 11.47975095    3.68288830    3.22992919
 C                  4.19337252    1.33353581    1.74163849
 C                  5.66280979   -2.08002738    2.30954949
 H                  5.33006108   -3.10841972    2.41500891
 C                  9.25511111   -2.20830762    4.67543957
 H                  8.95505758   -1.27164677    5.13626705
 C                 10.19270599   -3.40837313    2.79294023
 H                 10.62333428   -3.40222254    1.79621891
 C                  2.81333772    1.02725346    1.76270945
 H                  2.09316078    1.82613516    1.61284637
 C                  9.08361135   -3.41435276    5.35910903
 H                  8.65616510   -3.41150313    6.35735879
 C                  9.45928581   -4.62051441    4.75866375
 H                  9.32150192   -5.55864802    5.28785890
 C                 11.37039677    5.40067874    1.92815768
 H                 11.76680202    6.08430074    2.67296954
 C                 10.34094048    3.63345607    0.02224784
 H                  9.94119415    2.94425413   -0.71540699
 C                  2.37599545   -0.27984994    1.96851325
 H                  1.31267231   -0.49612983    1.97899725
 C                 10.01708033   -4.61429335    3.47525546
 H                 10.31478309   -5.54696957    3.00549582
 C                 11.02807567    5.86912165    0.65541724
 H                 11.16085433    6.91781916    0.40695805
 C                 10.51007099    4.98288595   -0.29567115
 H                 10.23832558    5.34130695   -1.28404046
 C                  5.13331073    0.27978509    1.94912865

 1 6 1.0 7 1.0
 2 10 1.0 16 1.0
 3 7 1.5 15 1.5 26 1.5
 4 11 1.0 13 1.5 16 1.5
 5 15 1.5 17 1.5 27 1.5
 6 9 1.5 13 1.5
 7 23 1.5
 8 15 1.5 19 1.5 29 1.5
 9 14 1.5 26 1.0
 10 12 1.5 36 1.5
 11 12 1.5 34 1.5
 12 25 1.5
 13 31 1.0
 14 16 1.5 33 1.0
 15
 16
 17 18 1.0 23 2.0
 18
 19 20 1.0 21 2.0
 20
 21 22 1.0 26 1.5
 22
 23 24 1.0
 24
 25 32 1.5 46 1.5
 26
 27 28 1.0 40 1.5
 28
 29 30 1.0 40 1.5
 30
 31 49 1.5 51 1.5
 32 38 1.5 47 1.5
 33 44 1.5 61 1.5
 34 35 1.0 47 2.0
 35
 36 37 1.0 42 2.0
 37
 38 39 1.0 63 1.5
 39
 40 41 1.0
 41
 42 43 1.0 46 1.5
 43
 44 45 1.0 59 1.5
 45
 46 53 1.5
 47 48 1.0
 48
 49 50 1.0 55 1.5
 50
 51 52 1.0 65 1.5
 52
 53 54 1.0 63 1.5
 54
 55 56 1.0 57 1.5
 56
 57 58 1.0 65 1.5
 58
 59 60 1.0 67 1.5
 60
 61 62 1.0 69 1.5
 62
 63 64 1.0
 64
 65 66 1.0
 66
 67 68 1.0 69 1.5
 68
 69 70 1.0
 70
 71 76 1.0 77 1.0
 72 80 1.0 86 1.0
 73 77 1.5 85 1.5 95 1.5
 74 81 1.0 83 1.5 86 1.5
 75 85 1.5 87 1.5 96 1.5
 76 79 1.5 83 1.5
 77 93 1.5
 78 85 1.5 89 1.5 98 1.5
 79 84 1.5 95 1.0
 80 82 1.5 105 1.5
 81 82 1.5 103 1.5
 82 140 1.5
 83 100 1.0
 84 86 1.5 102 1.0
 85
 86
 87 88 1.0 93 2.0
 88
 89 90 1.0 91 2.0
 90
 91 92 1.0 95 1.5
 92
 93 94 1.0
 94
 95
 96 97 1.0 109 1.5
 97
 98 99 1.0 109 1.5
 99
 100 118 1.5 120 1.5
 101 107 1.5 116 1.5 140 1.5
 102 113 1.5 130 1.5
 103 104 1.0 116 2.0
 104
 105 106 1.0 111 2.0
 106
 107 108 1.0 132 1.5
 108
 109 110 1.0
 110
 111 112 1.0 115 1.5
 112
 113 114 1.0 128 1.5
 114
 115 122 1.5 140 1.5
 116 117 1.0
 117
 118 119 1.0 124 1.5
 119
 120 121 1.0 134 1.5
 121
 122 123 1.0 132 1.5
 123
 124 125 1.0 126 1.5
 125
 126 127 1.0 134 1.5
 127
 128 129 1.0 136 1.5
 129
 130 131 1.0 138 1.5
 131
 132 133 1.0
 133
 134 135 1.0
 135
 136 137 1.0 138 1.5
 137
 138 139 1.0
 139
 140

