%chk=/oasis/projects/nsf/lhu120/cmw414/rc_slip_y_90/1_4A/dimer/dimer.chk
%nprocshared=24
%mem=110GB
#p b3lyp/6-311g(d,p) nosymm pop=full iop(3/33=1) punch=mo

c47

2 1
 O                  1.86343256   -2.18814168   -0.63312396
 O                 -1.87688744    1.76594132   -0.63317696
 C                  3.69461456   -0.67140268   -0.87047896
 C                 -1.39648944   -0.60712468   -0.87219696
 C                  5.97175156   -1.62878468   -0.73581696
 C                  0.95630456   -1.17504168   -0.77241696
 C                  3.19421256   -1.96292068   -0.63793396
 C                  5.65376956    0.77013232   -1.23999596
 C                  1.38305156    0.18492932   -0.87218096
 C                 -3.20766744    1.54071032   -0.63799196
 C                 -2.81321944   -0.85705968   -1.03609996
 C                 -3.70805744    0.24918032   -0.87049696
 C                 -0.37497644   -1.59266368   -0.78251796
 C                  0.36153156    1.17047132   -0.78252296
 C                  5.10807156   -0.51188368   -0.94441996
 C                 -0.96975044    0.75284632   -0.77244796
 C                  5.39488456   -2.90675768   -0.47207296
 H                  6.04966056   -3.75780568   -0.31297796
 C                  4.74462556    1.84550032   -1.48258496
 H                  5.14791656    2.81613132   -1.75583896
 C                  3.38157356    1.68676032   -1.38711396
 H                  2.74968056    2.53497832   -1.59754396
 C                  4.02720956   -3.07643968   -0.43155996
 H                  3.57365556   -4.04439768   -0.25108496
 C                 -5.12151244    0.08963932   -0.94441896
 C                  2.79978656    0.43484332   -1.03611196
 C                  7.36964356   -1.42936968   -0.80567596
 H                  8.03205756   -2.27390668   -0.64047896
 C                  7.05237556    0.92132132   -1.30766596
 H                  7.47035056    1.89702532   -1.53701096
 C                 -0.64793744   -3.04866968   -0.59509396
 C                 -5.66719544   -1.19239768   -1.23993096
 C                  0.63446856    2.62647732   -0.59506596
 C                 -3.39498944   -2.10900768   -1.38701396
 H                 -2.76308144   -2.95723068   -1.59738596
 C                 -4.04067744    2.65422632   -0.43164996
 H                 -3.58713344    3.62219432   -0.25120396
 C                 -7.06580044   -1.34360768   -1.30758296
 H                 -7.48376544   -2.31932768   -1.53687896
 C                  7.89727656   -0.17032768   -1.08596396
 H                  8.97295756   -0.03707868   -1.13791896
 C                 -5.40835044    2.48452732   -0.47215796
 H                 -6.06313544    3.33557232   -0.31308796
 C                  1.19132356    3.07285032    0.61237504
 H                  1.43075056    2.35253132    1.38925504
 C                 -5.98520444    1.20653832   -0.73585396
 C                 -4.75804044   -2.26777068   -1.48246496
 H                 -5.16132144   -3.23842268   -1.75565596
 C                 -1.20495544   -3.49503768    0.61227204
 H                 -1.44447744   -2.77471768    1.38912204
 C                 -0.33428944   -3.98126668   -1.59421096
 H                  0.10494656   -3.63898068   -2.52632896
 C                 -7.38309444    1.00710232   -0.80569496
 H                 -8.04551744    1.85163832   -0.64052696
 C                 -1.46487044   -4.85334768    0.80924704
 H                 -1.90033044   -5.18805568    1.74603204
 C                 -1.16705344   -5.77762768   -0.19748196
 H                 -1.37357744   -6.83295368   -0.04661296
 C                  1.45120356    4.43116132    0.80938404
 H                  1.88654356    4.76587132    1.74622404
 C                  0.32092856    3.55907532   -1.59421596
 H                 -0.11819244    3.21678732   -2.52638696
 C                 -7.91071344   -0.25195768   -1.08592496
 H                 -8.98639244   -0.38522368   -1.13786596
 C                 -0.59829944   -5.33868768   -1.39838196
 H                 -0.36076744   -6.05187768   -2.18204296
 C                  1.15351056    5.35543932   -0.19738296
 H                  1.36000956    6.41076732   -0.04648696
 C                  0.58490756    4.91649632   -1.39835396
 H                  0.34746656    5.62968632   -2.18204196
 O                 12.84775570   -2.49606859    3.17932333
 O                  8.85132125    0.91720505    1.76410575
 C                 14.57682135   -1.05031662    2.38547489
 C                  9.49358185   -1.33957629    2.40737421
 C                 16.91047618   -1.73359748    2.84072148
 C                 11.87718348   -1.66906062    2.68667464
 C                 14.16034425   -2.19780154    3.07996988
 C                 16.44077668    0.28598192    1.49506432
 C                 12.21340162   -0.41444420    2.09129073
 C                  7.53889221    0.61540221    1.85450859
 C                  8.09968922   -1.72847108    2.35962728
 C                  7.13010280   -0.70248282    2.11636492
 C                 10.57723763   -2.15136238    2.84270371
 C                 11.12677898    0.46305151    1.82280007
 C                 15.97743450   -0.83269037    2.24513286
 C                  9.82649937   -0.01186081    1.99760028
 C                 16.41629369   -2.86231328    3.55998203
 H                 17.12392693   -3.54895406    4.01397009
 C                 15.46572425    1.13278649    0.88350619
 H                 15.80750253    1.96094789    0.26968845
 C                 14.11498833    0.92721964    1.04312631
 H                 13.43122040    1.59399110    0.54220660
 C                 15.06258622   -3.09848601    3.67252848
 H                 14.67201684   -3.96159878    4.19951715
 C                 13.61271101   -0.14568375    1.83405646
 C                 18.29281992   -1.47851920    2.68969320
 H                 19.00753580   -2.15635992    3.14690021
 C                 17.82702912    0.49716010    1.36374774
 H                 18.18239169    1.34712130    0.78878346
 C                 10.39942907   -3.45245570    3.55342812
 C                  5.27836249   -2.30956456    2.31933398
 C                 11.29837679    1.90149595    1.46083326
 C                  7.60901494   -3.05857728    2.49756573
 H                  8.29974283   -3.87953012    2.60700877
 C                  6.62982627    1.66729814    1.64590705
 H                  7.01442859    2.66265745    1.45468498
 C                  3.89434573   -2.57034283    2.32476618
 H                  3.54656335   -3.58835980    2.47305569
 C                 18.73942781   -0.37679990    1.96243762
 H                 19.80446872   -0.19860212    1.85530384
 C                  5.27745905    1.40142446    1.68308467
 H                  4.56456623    2.20463442    1.52509143
 C                 11.80405669    2.79619315    2.41532521
 H                 12.07837357    2.42879831    3.39995639
 C                  4.79199514    0.07944582    1.91166569
 C                  6.26143241   -3.33411737    2.47957669
 C                  9.85373373   -3.46239761    4.84546677
 H                  9.55368020   -2.52573676    5.30629425
 C                 10.79132861   -4.66246312    2.96296743
 H                 11.22195690   -4.65631253    1.96624611
 C                  3.41196034   -0.22683653    1.93273665
 H                  2.69178340    0.57204517    1.78287357
 C                  9.68223397   -4.66844275    5.52913623
 H                  9.25478772   -4.66559312    6.52738599
 C                 10.05790843   -5.87460440    4.92869095
 H                  9.92012454   -6.81273801    5.45788610
 C                 11.96901939    4.14658875    2.09818488
 H                 12.36542464    4.83021075    2.84299674
 C                 10.93956310    2.37936608    0.19227504
 H                 10.53981677    1.69016414   -0.54537979
 C                  2.97461807   -1.53393993    2.13854045
 C                 10.61570295   -5.86838334    3.64528266
 H                 10.91340571   -6.80105956    3.17552302
 C                 11.62669829    4.61503166    0.82544444
 H                 11.75947695    5.66372917    0.57698525
 C                 11.10869361    3.72879596   -0.12564395
 H                 10.83694820    4.08721696   -1.11401326
 C                  5.73193335   -0.97430490    2.11915585
 H                  5.93359138   -4.34734203    2.58348070
 H                  1.92613685   -1.74720097    2.14887811

 1 6 1.0 7 1.0
 2 10 1.0 16 1.0
 3 7 1.5 15 1.5 26 1.5
 4 11 1.0 13 1.5 16 1.5
 5 15 1.5 17 1.5 27 1.5
 6 9 1.5 13 1.5
 7 23 1.5
 8 15 1.5 19 1.5 29 1.5
 9 14 1.5 26 1.0
 10 12 1.5 36 1.5
 11 12 1.5 34 1.5
 12 25 1.5
 13 31 1.0
 14 16 1.5 33 1.0
 15
 16
 17 18 1.0 23 2.0
 18
 19 20 1.0 21 2.0
 20
 21 22 1.0 26 1.5
 22
 23 24 1.0
 24
 25 32 1.5 46 1.5
 26
 27 28 1.0 40 1.5
 28
 29 30 1.0 40 1.5
 30
 31 49 1.5 51 1.5
 32 38 1.5 47 1.5
 33 44 1.5 61 1.5
 34 35 1.0 47 2.0
 35
 36 37 1.0 42 2.0
 37
 38 39 1.0 63 1.5
 39
 40 41 1.0
 41
 42 43 1.0 46 1.5
 43
 44 45 1.0 59 1.5
 45
 46 53 1.5
 47 48 1.0
 48
 49 50 1.0 55 1.5
 50
 51 52 1.0 65 1.5
 52
 53 54 1.0 63 1.5
 54
 55 56 1.0 57 1.5
 56
 57 58 1.0 65 1.5
 58
 59 60 1.0 67 1.5
 60
 61 62 1.0 69 1.5
 62
 63 64 1.0
 64
 65 66 1.0
 66
 67 68 1.0 69 1.5
 68
 69 70 1.0
 70
 71 76 1.0 77 1.0
 72 80 1.0 86 1.0
 73 77 1.5 85 1.5 95 1.5
 74 81 1.0 83 1.5 86 1.5
 75 85 1.5 87 1.5 96 1.5
 76 79 1.5 83 1.5
 77 93 1.5
 78 85 1.5 89 1.5 98 1.5
 79 84 1.5 95 1.0
 80 82 1.5 105 1.5
 81 82 1.5 103 1.5
 82 140 1.5
 83 100 1.0
 84 86 1.5 102 1.0
 85
 86
 87 88 1.0 93 2.0
 88
 89 90 1.0 91 2.0
 90
 91 92 1.0 95 1.5
 92
 93 94 1.0
 94
 95
 96 97 1.0 109 1.5
 97
 98 99 1.0 109 1.5
 99
 100 118 1.5 120 1.5
 101 107 1.5 116 1.5 140 1.5
 102 113 1.5 130 1.5
 103 104 1.0 116 2.0
 104
 105 106 1.0 111 2.0
 106
 107 108 1.0 132 1.5
 108
 109 110 1.0
 110
 111 112 1.0 115 1.5
 112
 113 114 1.0 128 1.5
 114
 115 122 1.5 140 1.5
 116 117 1.0
 117
 118 119 1.0 124 1.5
 119
 120 121 1.0 134 1.5
 121
 122 123 1.0 132 1.5
 123
 124 125 1.0 126 1.5
 125
 126 127 1.0 134 1.5
 127
 128 129 1.0 136 1.5
 129
 130 131 1.0 138 1.5
 131
 132 133 1.0
 133
 134 135 1.0
 135
 136 137 1.0 138 1.5
 137
 138 139 1.0
 139
 140





















