%chk=/home/cmw414/pcpl_transfer_integral/rc_stack/5_9A/dimer/dimer.chk
%nprocshared=20
%mem=110GB
#p b3lyp/6-311g(d,p) nosymm pop=full iop(3/33=1) punch=mo

c47

2 1
 O                  1.83903466   -2.95342151   -3.43022094
 O                 -1.90128534    1.00066149   -3.43027394
 C                  3.67021666   -1.43668251   -3.66757594
 C                 -1.42088734   -1.37240451   -3.66929394
 C                  5.94735366   -2.39406451   -3.53291394
 C                  0.93190666   -1.94032151   -3.56951394
 C                  3.16981466   -2.72820051   -3.43503094
 C                  5.62937166    0.00485249   -4.03709294
 C                  1.35865366   -0.58035051   -3.66927794
 C                 -3.23206534    0.77543049   -3.43508894
 C                 -2.83761734   -1.62233951   -3.83319694
 C                 -3.73245534   -0.51609951   -3.66759394
 C                 -0.39937434   -2.35794351   -3.57961494
 C                  0.33713366    0.40519149   -3.57961994
 C                  5.08367366   -1.27716351   -3.74151694
 C                 -0.99414834   -0.01243351   -3.56954494
 C                  5.37048666   -3.67203751   -3.26916994
 H                  6.02526266   -4.52308551   -3.11007494
 C                  4.72022766    1.08022049   -4.27968194
 H                  5.12351866    2.05085149   -4.55293594
 C                  3.35717566    0.92148049   -4.18421094
 H                  2.72528266    1.76969849   -4.39464094
 C                  4.00281166   -3.84171951   -3.22865694
 H                  3.54925766   -4.80967751   -3.04818194
 C                 -5.14591034   -0.67564051   -3.74151594
 C                  2.77538866   -0.33043651   -3.83320894
 C                  7.34524566   -2.19464951   -3.60277294
 H                  8.00765966   -3.03918651   -3.43757594
 C                  7.02797766    0.15604149   -4.10476294
 H                  7.44595266    1.13174549   -4.33410794
 C                 -0.67233534   -3.81394951   -3.39219094
 C                 -5.69159334   -1.95767751   -4.03702794
 C                  0.61007066    1.86119749   -3.39216294
 C                 -3.41938734   -2.87428751   -4.18411094
 H                 -2.78747934   -3.72251051   -4.39448294
 C                 -4.06507534    1.88894649   -3.22874694
 H                 -3.61153134    2.85691449   -3.04830094
 C                 -7.09019834   -2.10888751   -4.10467994
 H                 -7.50816334   -3.08460751   -4.33397594
 C                  7.87287866   -0.93560751   -3.88306094
 H                  8.94855966   -0.80235851   -3.93501594
 C                 -5.43274834    1.71924749   -3.26925494
 H                 -6.08753334    2.57029249   -3.11018494
 C                  1.16692566    2.30757049   -2.18472194
 H                  1.40635266    1.58725149   -1.40784194
 C                 -6.00960234    0.44125849   -3.53295094
 C                 -4.78243834   -3.03305051   -4.27956194
 H                 -5.18571934   -4.00370251   -4.55275294
 C                 -1.22935334   -4.26031751   -2.18482494
 H                 -1.46887534   -3.53999751   -1.40797494
 C                 -0.35868734   -4.74654651   -4.39130794
 H                  0.08054866   -4.40426051   -5.32342594
 C                 -7.40749234    0.24182249   -3.60279194
 H                 -8.06991534    1.08635849   -3.43762394
 C                 -1.48926834   -5.61862751   -1.98784994
 H                 -1.92472834   -5.95333551   -1.05106494
 C                 -1.19145134   -6.54290751   -2.99457894
 H                 -1.39797534   -7.59823351   -2.84370994
 C                  1.42680566    3.66588149   -1.98771294
 H                  1.86214566    4.00059149   -1.05087294
 C                  0.29653066    2.79379549   -4.39131294
 H                 -0.14259034    2.45150749   -5.32348394
 C                 -7.93511134   -1.01723751   -3.88302194
 H                 -9.01079034   -1.15050351   -3.93496294
 C                 -0.62269734   -6.10396751   -4.19547894
 H                 -0.38516534   -6.81715751   -4.97913994
 C                  1.12911266    4.59015949   -2.99447994
 H                  1.33561166    5.64548749   -2.84358394
 C                  0.56050966    4.15121649   -4.19545094
 H                  0.32306866    4.86440649   -4.97913894
 O                 12.24913308   -1.24197860    3.00929613
 O                  8.25269863    2.17129504    1.59407855
 C                 13.97819873    0.20377337    2.21544769
 C                  8.89495923   -0.08548630    2.23734701
 C                 16.31185356   -0.47950749    2.67069428
 C                 11.27856086   -0.41497063    2.51664744
 C                 13.56172163   -0.94371155    2.90994268
 C                 15.84215406    1.54007191    1.32503712
 C                 11.61477900    0.83964579    1.92126353
 C                  6.94026959    1.86949220    1.68448139
 C                  7.50106660   -0.47438109    2.18960008
 C                  6.53148018    0.55160717    1.94633772
 C                  9.97861501   -0.89727239    2.67267651
 C                 10.52815636    1.71714150    1.65277287
 C                 15.37881188    0.42139962    2.07510566
 C                  9.22787675    1.24222918    1.82757308
 C                 15.81767107   -1.60822329    3.38995483
 H                 16.52530431   -2.29486407    3.84394289
 C                 14.86710163    2.38687648    0.71347899
 H                 15.20887991    3.21503788    0.09966125
 C                 13.51636571    2.18130963    0.87309911
 H                 12.83259778    2.84808109    0.37217940
 C                 14.46396360   -1.84439602    3.50250128
 H                 14.07339422   -2.70750879    4.02948995
 C                 13.01408839    1.10840624    1.66402926
 C                 17.69419730   -0.22442921    2.51966600
 H                 18.40891318   -0.90226993    2.97687301
 C                 17.22840650    1.75125009    1.19372054
 H                 17.58376907    2.60121129    0.61875626
 C                  9.80080645   -2.19836571    3.38340092
 C                  4.67973987   -1.05547457    2.14930678
 C                 10.69975417    3.15558594    1.29080606
 C                  7.01039232   -1.80448729    2.32753853
 H                  7.70112021   -2.62544013    2.43698157
 C                  6.03120365    2.92138813    1.47587985
 H                  6.41580597    3.91674744    1.28465778
 C                  3.29572311   -1.31625284    2.15473898
 H                  2.94794073   -2.33426981    2.30302849
 C                 18.14080519    0.87729009    1.79241042
 H                 19.20584610    1.05548787    1.68527664
 C                  4.67883643    2.65551445    1.51305747
 H                  3.96594361    3.45872441    1.35506423
 C                 11.20543407    4.05028314    2.24529801
 H                 11.47975095    3.68288830    3.22992919
 C                  4.19337252    1.33353581    1.74163849
 C                  5.66280979   -2.08002738    2.30954949
 H                  5.33006108   -3.10841972    2.41500891
 C                  9.25511111   -2.20830762    4.67543957
 H                  8.95505758   -1.27164677    5.13626705
 C                 10.19270599   -3.40837313    2.79294023
 H                 10.62333428   -3.40222254    1.79621891
 C                  2.81333772    1.02725346    1.76270945
 H                  2.09316078    1.82613516    1.61284637
 C                  9.08361135   -3.41435276    5.35910903
 H                  8.65616510   -3.41150313    6.35735879
 C                  9.45928581   -4.62051441    4.75866375
 H                  9.32150192   -5.55864802    5.28785890
 C                 11.37039677    5.40067874    1.92815768
 H                 11.76680202    6.08430074    2.67296954
 C                 10.34094048    3.63345607    0.02224784
 H                  9.94119415    2.94425413   -0.71540699
 C                  2.37599545   -0.27984994    1.96851325
 H                  1.31267231   -0.49612983    1.97899725
 C                 10.01708033   -4.61429335    3.47525546
 H                 10.31478309   -5.54696957    3.00549582
 C                 11.02807567    5.86912165    0.65541724
 H                 11.16085433    6.91781916    0.40695805
 C                 10.51007099    4.98288595   -0.29567115
 H                 10.23832558    5.34130695   -1.28404046
 C                  5.13331073    0.27978509    1.94912865

 1 6 1.0 7 1.0
 2 10 1.0 16 1.0
 3 7 1.5 15 1.5 26 1.5
 4 11 1.0 13 1.5 16 1.5
 5 15 1.5 17 1.5 27 1.5
 6 9 1.5 13 1.5
 7 23 1.5
 8 15 1.5 19 1.5 29 1.5
 9 14 1.5 26 1.0
 10 12 1.5 36 1.5
 11 12 1.5 34 1.5
 12 25 1.5
 13 31 1.0
 14 16 1.5 33 1.0
 15
 16
 17 18 1.0 23 2.0
 18
 19 20 1.0 21 2.0
 20
 21 22 1.0 26 1.5
 22
 23 24 1.0
 24
 25 32 1.5 46 1.5
 26
 27 28 1.0 40 1.5
 28
 29 30 1.0 40 1.5
 30
 31 49 1.5 51 1.5
 32 38 1.5 47 1.5
 33 44 1.5 61 1.5
 34 35 1.0 47 2.0
 35
 36 37 1.0 42 2.0
 37
 38 39 1.0 63 1.5
 39
 40 41 1.0
 41
 42 43 1.0 46 1.5
 43
 44 45 1.0 59 1.5
 45
 46 53 1.5
 47 48 1.0
 48
 49 50 1.0 55 1.5
 50
 51 52 1.0 65 1.5
 52
 53 54 1.0 63 1.5
 54
 55 56 1.0 57 1.5
 56
 57 58 1.0 65 1.5
 58
 59 60 1.0 67 1.5
 60
 61 62 1.0 69 1.5
 62
 63 64 1.0
 64
 65 66 1.0
 66
 67 68 1.0 69 1.5
 68
 69 70 1.0
 70
 71 76 1.0 77 1.0
 72 80 1.0 86 1.0
 73 77 1.5 85 1.5 95 1.5
 74 81 1.0 83 1.5 86 1.5
 75 85 1.5 87 1.5 96 1.5
 76 79 1.5 83 1.5
 77 93 1.5
 78 85 1.5 89 1.5 98 1.5
 79 84 1.5 95 1.0
 80 82 1.5 105 1.5
 81 82 1.5 103 1.5
 82 140 1.5
 83 100 1.0
 84 86 1.5 102 1.0
 85
 86
 87 88 1.0 93 2.0
 88
 89 90 1.0 91 2.0
 90
 91 92 1.0 95 1.5
 92
 93 94 1.0
 94
 95
 96 97 1.0 109 1.5
 97
 98 99 1.0 109 1.5
 99
 100 118 1.5 120 1.5
 101 107 1.5 116 1.5 140 1.5
 102 113 1.5 130 1.5
 103 104 1.0 116 2.0
 104
 105 106 1.0 111 2.0
 106
 107 108 1.0 132 1.5
 108
 109 110 1.0
 110
 111 112 1.0 115 1.5
 112
 113 114 1.0 128 1.5
 114
 115 122 1.5 140 1.5
 116 117 1.0
 117
 118 119 1.0 124 1.5
 119
 120 121 1.0 134 1.5
 121
 122 123 1.0 132 1.5
 123
 124 125 1.0 126 1.5
 125
 126 127 1.0 134 1.5
 127
 128 129 1.0 136 1.5
 129
 130 131 1.0 138 1.5
 131
 132 133 1.0
 133
 134 135 1.0
 135
 136 137 1.0 138 1.5
 137
 138 139 1.0
 139
 140

