%chk=/home/cmw414/pcpl_transfer_integral/rc_stack/9_9A/dimer/dimer.chk
%nprocshared=20
%mem=110GB
#p b3lyp/6-311g(d,p) nosymm pop=full iop(3/33=1) punch=mo

c47

2 1
 O                  1.80538242   -4.00897987   -7.28828575
 O                 -1.93493758   -0.05489687   -7.28833875
 C                  3.63656442   -2.49224087   -7.52564075
 C                 -1.45453958   -2.42796287   -7.52735875
 C                  5.91370142   -3.44962287   -7.39097875
 C                  0.89825442   -2.99587987   -7.42757875
 C                  3.13616242   -3.78375887   -7.29309575
 C                  5.59571942   -1.05070587   -7.89515775
 C                  1.32500142   -1.63590887   -7.52734275
 C                 -3.26571758   -0.28012787   -7.29315375
 C                 -2.87126958   -2.67789787   -7.69126175
 C                 -3.76610758   -1.57165787   -7.52565875
 C                 -0.43302658   -3.41350187   -7.43767975
 C                  0.30348142   -0.65036687   -7.43768475
 C                  5.05002142   -2.33272187   -7.59958175
 C                 -1.02780058   -1.06799187   -7.42760975
 C                  5.33683442   -4.72759587   -7.12723475
 H                  5.99161042   -5.57864387   -6.96813975
 C                  4.68657542    0.02466213   -8.13774675
 H                  5.08986642    0.99529313   -8.41100075
 C                  3.32352342   -0.13407787   -8.04227575
 H                  2.69163042    0.71414013   -8.25270575
 C                  3.96915942   -4.89727787   -7.08672175
 H                  3.51560542   -5.86523587   -6.90624675
 C                 -5.17956258   -1.73119887   -7.59958075
 C                  2.74173642   -1.38599487   -7.69127375
 C                  7.31159342   -3.25020787   -7.46083775
 H                  7.97400742   -4.09474487   -7.29564075
 C                  6.99432542   -0.89951687   -7.96282775
 H                  7.41230042    0.07618713   -8.19217275
 C                 -0.70598758   -4.86950787   -7.25025575
 C                 -5.72524558   -3.01323587   -7.89509275
 C                  0.57641842    0.80563913   -7.25022775
 C                 -3.45303958   -3.92984587   -8.04217575
 H                 -2.82113158   -4.77806887   -8.25254775
 C                 -4.09872758    0.83338813   -7.08681175
 H                 -3.64518358    1.80135613   -6.90636575
 C                 -7.12385058   -3.16444587   -7.96274475
 H                 -7.54181558   -4.14016587   -8.19204075
 C                  7.83922642   -1.99116587   -7.74112575
 H                  8.91490742   -1.85791687   -7.79308075
 C                 -5.46640058    0.66368913   -7.12731975
 H                 -6.12118558    1.51473413   -6.96824975
 C                  1.13327342    1.25201213   -6.04278675
 H                  1.37270042    0.53169313   -5.26590675
 C                 -6.04325458   -0.61429987   -7.39101575
 C                 -4.81609058   -4.08860887   -8.13762675
 H                 -5.21937158   -5.05926087   -8.41081775
 C                 -1.26300558   -5.31587587   -6.04288975
 H                 -1.50252758   -4.59555587   -5.26603975
 C                 -0.39233958   -5.80210487   -8.24937275
 H                  0.04689642   -5.45981887   -9.18149075
 C                 -7.44114458   -0.81373587   -7.46085675
 H                 -8.10356758    0.03080013   -7.29568875
 C                 -1.52292058   -6.67418587   -5.84591475
 H                 -1.95838058   -7.00889387   -4.90912975
 C                 -1.22510358   -7.59846587   -6.85264375
 H                 -1.43162758   -8.65379187   -6.70177475
 C                  1.39315342    2.61032313   -5.84577775
 H                  1.82849342    2.94503313   -4.90893775
 C                  0.26287842    1.73823713   -8.24937775
 H                 -0.17624258    1.39594913   -9.18154875
 C                 -7.96876358   -2.07279587   -7.74108675
 H                 -9.04444258   -2.20606187   -7.79302775
 C                 -0.65634958   -7.15952587   -8.05354375
 H                 -0.41881758   -7.87271587   -8.83720475
 C                  1.09546042    3.53460113   -6.85254475
 H                  1.30195942    4.58992913   -6.70164875
 C                  0.52685742    3.09565813   -8.05351575
 H                  0.28941642    3.80884813   -8.83720375
 O                 12.24913308   -1.24197860    3.00929613
 O                  8.25269863    2.17129504    1.59407855
 C                 13.97819873    0.20377337    2.21544769
 C                  8.89495923   -0.08548630    2.23734701
 C                 16.31185356   -0.47950749    2.67069428
 C                 11.27856086   -0.41497063    2.51664744
 C                 13.56172163   -0.94371155    2.90994268
 C                 15.84215406    1.54007191    1.32503712
 C                 11.61477900    0.83964579    1.92126353
 C                  6.94026959    1.86949220    1.68448139
 C                  7.50106660   -0.47438109    2.18960008
 C                  6.53148018    0.55160717    1.94633772
 C                  9.97861501   -0.89727239    2.67267651
 C                 10.52815636    1.71714150    1.65277287
 C                 15.37881188    0.42139962    2.07510566
 C                  9.22787675    1.24222918    1.82757308
 C                 15.81767107   -1.60822329    3.38995483
 H                 16.52530431   -2.29486407    3.84394289
 C                 14.86710163    2.38687648    0.71347899
 H                 15.20887991    3.21503788    0.09966125
 C                 13.51636571    2.18130963    0.87309911
 H                 12.83259778    2.84808109    0.37217940
 C                 14.46396360   -1.84439602    3.50250128
 H                 14.07339422   -2.70750879    4.02948995
 C                 13.01408839    1.10840624    1.66402926
 C                 17.69419730   -0.22442921    2.51966600
 H                 18.40891318   -0.90226993    2.97687301
 C                 17.22840650    1.75125009    1.19372054
 H                 17.58376907    2.60121129    0.61875626
 C                  9.80080645   -2.19836571    3.38340092
 C                  4.67973987   -1.05547457    2.14930678
 C                 10.69975417    3.15558594    1.29080606
 C                  7.01039232   -1.80448729    2.32753853
 H                  7.70112021   -2.62544013    2.43698157
 C                  6.03120365    2.92138813    1.47587985
 H                  6.41580597    3.91674744    1.28465778
 C                  3.29572311   -1.31625284    2.15473898
 H                  2.94794073   -2.33426981    2.30302849
 C                 18.14080519    0.87729009    1.79241042
 H                 19.20584610    1.05548787    1.68527664
 C                  4.67883643    2.65551445    1.51305747
 H                  3.96594361    3.45872441    1.35506423
 C                 11.20543407    4.05028314    2.24529801
 H                 11.47975095    3.68288830    3.22992919
 C                  4.19337252    1.33353581    1.74163849
 C                  5.66280979   -2.08002738    2.30954949
 H                  5.33006108   -3.10841972    2.41500891
 C                  9.25511111   -2.20830762    4.67543957
 H                  8.95505758   -1.27164677    5.13626705
 C                 10.19270599   -3.40837313    2.79294023
 H                 10.62333428   -3.40222254    1.79621891
 C                  2.81333772    1.02725346    1.76270945
 H                  2.09316078    1.82613516    1.61284637
 C                  9.08361135   -3.41435276    5.35910903
 H                  8.65616510   -3.41150313    6.35735879
 C                  9.45928581   -4.62051441    4.75866375
 H                  9.32150192   -5.55864802    5.28785890
 C                 11.37039677    5.40067874    1.92815768
 H                 11.76680202    6.08430074    2.67296954
 C                 10.34094048    3.63345607    0.02224784
 H                  9.94119415    2.94425413   -0.71540699
 C                  2.37599545   -0.27984994    1.96851325
 H                  1.31267231   -0.49612983    1.97899725
 C                 10.01708033   -4.61429335    3.47525546
 H                 10.31478309   -5.54696957    3.00549582
 C                 11.02807567    5.86912165    0.65541724
 H                 11.16085433    6.91781916    0.40695805
 C                 10.51007099    4.98288595   -0.29567115
 H                 10.23832558    5.34130695   -1.28404046
 C                  5.13331073    0.27978509    1.94912865

 1 6 1.0 7 1.0
 2 10 1.0 16 1.0
 3 7 1.5 15 1.5 26 1.5
 4 11 1.0 13 1.5 16 1.5
 5 15 1.5 17 1.5 27 1.5
 6 9 1.5 13 1.5
 7 23 1.5
 8 15 1.5 19 1.5 29 1.5
 9 14 1.5 26 1.0
 10 12 1.5 36 1.5
 11 12 1.5 34 1.5
 12 25 1.5
 13 31 1.0
 14 16 1.5 33 1.0
 15
 16
 17 18 1.0 23 2.0
 18
 19 20 1.0 21 2.0
 20
 21 22 1.0 26 1.5
 22
 23 24 1.0
 24
 25 32 1.5 46 1.5
 26
 27 28 1.0 40 1.5
 28
 29 30 1.0 40 1.5
 30
 31 49 1.5 51 1.5
 32 38 1.5 47 1.5
 33 44 1.5 61 1.5
 34 35 1.0 47 2.0
 35
 36 37 1.0 42 2.0
 37
 38 39 1.0 63 1.5
 39
 40 41 1.0
 41
 42 43 1.0 46 1.5
 43
 44 45 1.0 59 1.5
 45
 46 53 1.5
 47 48 1.0
 48
 49 50 1.0 55 1.5
 50
 51 52 1.0 65 1.5
 52
 53 54 1.0 63 1.5
 54
 55 56 1.0 57 1.5
 56
 57 58 1.0 65 1.5
 58
 59 60 1.0 67 1.5
 60
 61 62 1.0 69 1.5
 62
 63 64 1.0
 64
 65 66 1.0
 66
 67 68 1.0 69 1.5
 68
 69 70 1.0
 70
 71 76 1.0 77 1.0
 72 80 1.0 86 1.0
 73 77 1.5 85 1.5 95 1.5
 74 81 1.0 83 1.5 86 1.5
 75 85 1.5 87 1.5 96 1.5
 76 79 1.5 83 1.5
 77 93 1.5
 78 85 1.5 89 1.5 98 1.5
 79 84 1.5 95 1.0
 80 82 1.5 105 1.5
 81 82 1.5 103 1.5
 82 140 1.5
 83 100 1.0
 84 86 1.5 102 1.0
 85
 86
 87 88 1.0 93 2.0
 88
 89 90 1.0 91 2.0
 90
 91 92 1.0 95 1.5
 92
 93 94 1.0
 94
 95
 96 97 1.0 109 1.5
 97
 98 99 1.0 109 1.5
 99
 100 118 1.5 120 1.5
 101 107 1.5 116 1.5 140 1.5
 102 113 1.5 130 1.5
 103 104 1.0 116 2.0
 104
 105 106 1.0 111 2.0
 106
 107 108 1.0 132 1.5
 108
 109 110 1.0
 110
 111 112 1.0 115 1.5
 112
 113 114 1.0 128 1.5
 114
 115 122 1.5 140 1.5
 116 117 1.0
 117
 118 119 1.0 124 1.5
 119
 120 121 1.0 134 1.5
 121
 122 123 1.0 132 1.5
 123
 124 125 1.0 126 1.5
 125
 126 127 1.0 134 1.5
 127
 128 129 1.0 136 1.5
 129
 130 131 1.0 138 1.5
 131
 132 133 1.0
 133
 134 135 1.0
 135
 136 137 1.0 138 1.5
 137
 138 139 1.0
 139
 140

