%chk=/oasis/projects/nsf/lhu120/cmw414/pent_slip_x/2_8A/dimer/dimer.chk
%nprocshared=24
%mem=110GB
#p b3lyp/6-311g(d,p) nosymm pop=full iop(3/33=1) punch=mo

c47

0 1
 C                 -7.96682273   -5.96300876    1.01574231
 C                 -7.93882273   -5.10700876   -0.04025769
 C                 -7.31782273   -5.42500876   -1.27525769
 C                 -7.30282273   -4.52600876   -2.36025769
 C                 -6.64782273   -4.85900876   -3.57825769
 C                 -6.59882273   -3.99500876   -4.66025769
 C                 -6.05082273   -6.20300876   -3.71225769
 C                 -6.16582273   -7.04700876   -2.65425769
 C                 -6.68682273   -6.74300876   -1.40925769
 C                 -6.81282273   -7.61200876   -0.31825769
 C                 -7.32482273   -7.29500876    0.88674231
 H                 -8.45682273   -5.64400876    2.08274231
 H                 -8.34782273   -4.08300876    0.05274231
 H                 -7.73682273   -3.51300876   -2.22425769
 H                 -7.06582273   -2.97700876   -4.51525769
 H                 -5.70782273   -8.05800876   -2.74625769
 H                 -6.35582273   -8.61800876   -0.39725769
 H                 -7.33582273   -7.97400876    1.76374231
 C                 -5.99882273   -4.31400876   -5.89825769
 C                 -5.45082273   -6.52200876   -4.95025769
 C                 -5.40082273   -5.65900876   -6.03225769
 C                 -5.88382273   -3.47100876   -6.95625769
 H                 -4.98282273   -7.54100876   -5.09525769
 C                 -4.74682273   -5.99200876   -7.25025769
 C                 -5.36182273   -3.77500876   -8.20125769
 H                 -6.34182273   -2.46000876   -6.86425769
 C                 -4.73182273   -5.09300876   -8.33525769
 H                 -4.31282273   -7.00400876   -7.38625769
 C                 -5.23682273   -2.90600876   -9.29225769
 C                 -4.11082273   -5.41000876   -9.57025769
 C                 -4.72482273   -3.22300876  -10.49725769
 H                 -5.69382273   -1.90000876   -9.21325769
 C                 -4.08282273   -4.55500876  -10.62625769
 H                 -3.70182273   -6.43500876   -9.66325769
 H                 -4.71282273   -2.54400876  -11.37425769
 H                 -3.59282273   -4.87400876  -11.69325769
 C                 -5.55955519   -5.28557798    4.80563065
 C                 -5.53155519   -4.42957798    3.74963065
 C                 -4.91055519   -4.74757798    2.51463065
 C                 -4.89555519   -3.84857798    1.42963065
 C                 -4.24055519   -4.18157798    0.21163065
 C                 -4.19155519   -3.31757798   -0.87036935
 C                 -3.64355519   -5.52557798    0.07763065
 C                 -3.75855519   -6.36957798    1.13563065
 C                 -4.27955519   -6.06557798    2.38063065
 C                 -4.40555519   -6.93457798    3.47163065
 C                 -4.91755519   -6.61757798    4.67663065
 H                 -6.04955519   -4.96657798    5.87263065
 H                 -5.94055519   -3.40557798    3.84263065
 H                 -5.32955519   -2.83557798    1.56563065
 H                 -4.65855519   -2.29957798   -0.72536935
 H                 -3.30055519   -7.38057798    1.04363065
 H                 -3.94855519   -7.94057798    3.39263065
 H                 -4.92855519   -7.29657798    5.55363065
 C                 -3.59155519   -3.63657798   -2.10836935
 C                 -3.04355519   -5.84457798   -1.16036935
 C                 -2.99355519   -4.98157798   -2.24236935
 C                 -3.47655519   -2.79357798   -3.16636935
 H                 -2.57555519   -6.86357798   -1.30536935
 C                 -2.33955519   -5.31457798   -3.46036935
 C                 -2.95455519   -3.09757798   -4.41136935
 H                 -3.93455519   -1.78257798   -3.07436935
 C                 -2.32455519   -4.41557798   -4.54536935
 H                 -1.90555519   -6.32657798   -3.59636935
 C                 -2.82955519   -2.22857798   -5.50236935
 C                 -1.70355519   -4.73257798   -5.78036935
 C                 -2.31755519   -2.54557798   -6.70736935
 H                 -3.28655519   -1.22257798   -5.42336935
 C                 -1.67555519   -3.87757798   -6.83636935
 H                 -1.29455519   -5.75757798   -5.87336935
 H                 -2.30555519   -1.86657798   -7.58436935
 H                 -1.18555519   -4.19657798   -7.90336935

 1 2 2.0 11 1.0 12 1.0
 2 3 1.5 13 1.0
 3 4 1.5 9 1.0
 4 5 1.5 14 1.0
 5 6 2.0 7 1.0
 6 15 1.0 19 1.5
 7 8 2.0 20 1.5
 8 9 2.0 16 1.0
 9 10 1.5
 10 11 2.0 17 1.0
 11 18 1.0
 12
 13
 14
 15
 16
 17
 18
 19 21 1.0 22 2.0
 20 21 2.0 23 1.0
 21 24 1.5
 22 25 2.0 26 1.0
 23
 24 27 1.5 28 1.0
 25 27 1.0 29 1.5
 26
 27 30 1.5
 28
 29 31 2.0 32 1.0
 30 33 2.0 34 1.0
 31 33 1.0 35 1.0
 32
 33 36 1.0
 34
 35
 36
 37 38 2.0 47 1.0 48 1.0
 38 39 1.5 49 1.0
 39 40 1.5 45 1.0
 40 41 1.5 50 1.0
 41 42 2.0 43 1.0
 42 51 1.0 55 1.5
 43 44 2.0 56 1.5
 44 45 2.0 52 1.0
 45 46 1.5
 46 47 2.0 53 1.0
 47 54 1.0
 48
 49
 50
 51
 52
 53
 54
 55 57 1.0 58 2.0
 56 57 2.0 59 1.0
 57 60 1.5
 58 61 2.0 62 1.0
 59
 60 63 1.5 64 1.0
 61 63 1.0 65 1.5
 62
 63 66 1.5
 64
 65 67 2.0 68 1.0
 66 69 2.0 70 1.0
 67 69 1.0 71 1.0
 68
 69 72 1.0
 70
 71
 72

