%chk=/oasis/projects/nsf/lhu120/cmw414/rc_slip_y_90/n_0_1A/dimer/dimer.chk
%mem=110GB
#p b3lyp/6-311g(d,p) nosymm pop=full iop(3/33=1) punch=mo

c47

2 1
 O                  1.86343256   -2.18814168   -0.63312396
 O                 -1.87688744    1.76594132   -0.63317696
 C                  3.69461456   -0.67140268   -0.87047896
 C                 -1.39648944   -0.60712468   -0.87219696
 C                  5.97175156   -1.62878468   -0.73581696
 C                  0.95630456   -1.17504168   -0.77241696
 C                  3.19421256   -1.96292068   -0.63793396
 C                  5.65376956    0.77013232   -1.23999596
 C                  1.38305156    0.18492932   -0.87218096
 C                 -3.20766744    1.54071032   -0.63799196
 C                 -2.81321944   -0.85705968   -1.03609996
 C                 -3.70805744    0.24918032   -0.87049696
 C                 -0.37497644   -1.59266368   -0.78251796
 C                  0.36153156    1.17047132   -0.78252296
 C                  5.10807156   -0.51188368   -0.94441996
 C                 -0.96975044    0.75284632   -0.77244796
 C                  5.39488456   -2.90675768   -0.47207296
 H                  6.04966056   -3.75780568   -0.31297796
 C                  4.74462556    1.84550032   -1.48258496
 H                  5.14791656    2.81613132   -1.75583896
 C                  3.38157356    1.68676032   -1.38711396
 H                  2.74968056    2.53497832   -1.59754396
 C                  4.02720956   -3.07643968   -0.43155996
 H                  3.57365556   -4.04439768   -0.25108496
 C                 -5.12151244    0.08963932   -0.94441896
 C                  2.79978656    0.43484332   -1.03611196
 C                  7.36964356   -1.42936968   -0.80567596
 H                  8.03205756   -2.27390668   -0.64047896
 C                  7.05237556    0.92132132   -1.30766596
 H                  7.47035056    1.89702532   -1.53701096
 C                 -0.64793744   -3.04866968   -0.59509396
 C                 -5.66719544   -1.19239768   -1.23993096
 C                  0.63446856    2.62647732   -0.59506596
 C                 -3.39498944   -2.10900768   -1.38701396
 H                 -2.76308144   -2.95723068   -1.59738596
 C                 -4.04067744    2.65422632   -0.43164996
 H                 -3.58713344    3.62219432   -0.25120396
 C                 -7.06580044   -1.34360768   -1.30758296
 H                 -7.48376544   -2.31932768   -1.53687896
 C                  7.89727656   -0.17032768   -1.08596396
 H                  8.97295756   -0.03707868   -1.13791896
 C                 -5.40835044    2.48452732   -0.47215796
 H                 -6.06313544    3.33557232   -0.31308796
 C                  1.19132356    3.07285032    0.61237504
 H                  1.43075056    2.35253132    1.38925504
 C                 -5.98520444    1.20653832   -0.73585396
 C                 -4.75804044   -2.26777068   -1.48246496
 H                 -5.16132144   -3.23842268   -1.75565596
 C                 -1.20495544   -3.49503768    0.61227204
 H                 -1.44447744   -2.77471768    1.38912204
 C                 -0.33428944   -3.98126668   -1.59421096
 H                  0.10494656   -3.63898068   -2.52632896
 C                 -7.38309444    1.00710232   -0.80569496
 H                 -8.04551744    1.85163832   -0.64052696
 C                 -1.46487044   -4.85334768    0.80924704
 H                 -1.90033044   -5.18805568    1.74603204
 C                 -1.16705344   -5.77762768   -0.19748196
 H                 -1.37357744   -6.83295368   -0.04661296
 C                  1.45120356    4.43116132    0.80938404
 H                  1.88654356    4.76587132    1.74622404
 C                  0.32092856    3.55907532   -1.59421596
 H                 -0.11819244    3.21678732   -2.52638696
 C                 -7.91071344   -0.25195768   -1.08592496
 H                 -8.98639244   -0.38522368   -1.13786596
 C                 -0.59829944   -5.33868768   -1.39838196
 H                 -0.36076744   -6.05187768   -2.18204296
 C                  1.15351056    5.35543932   -0.19738296
 H                  1.36000956    6.41076732   -0.04648696
 C                  0.58490756    4.91649632   -1.39835396
 H                  0.34746656    5.62968632   -2.18204196
 O                 12.20637431   -1.15240074    2.99715140
 O                  8.20993986    2.26087290    1.58193382
 C                 13.93543996    0.29335123    2.20330296
 C                  8.85220046    0.00409156    2.22520228
 C                 16.26909479   -0.38992963    2.65854955
 C                 11.23580209   -0.32539277    2.50450271
 C                 13.51896286   -0.85413369    2.89779795
 C                 15.79939529    1.62964977    1.31289239
 C                 11.57202023    0.92922365    1.90911880
 C                  6.89751082    1.95907006    1.67233666
 C                  7.45830783   -0.38480323    2.17745535
 C                  6.48872141    0.64118503    1.93419299
 C                  9.93585624   -0.80769453    2.66053178
 C                 10.48539759    1.80671936    1.64062814
 C                 15.33605311    0.51097748    2.06296093
 C                  9.18511798    1.33180704    1.81542835
 C                 15.77491230   -1.51864543    3.37781010
 H                 16.48254554   -2.20528621    3.83179816
 C                 14.82434286    2.47645434    0.70133426
 H                 15.16612114    3.30461574    0.08751652
 C                 13.47360694    2.27088749    0.86095438
 H                 12.78983901    2.93765895    0.36003467
 C                 14.42120483   -1.75481816    3.49035655
 H                 14.03063545   -2.61793093    4.01734522
 C                 12.97132962    1.19798410    1.65188453
 C                 17.65143853   -0.13485135    2.50752127
 H                 18.36615441   -0.81269207    2.96472828
 C                 17.18564773    1.84082795    1.18157581
 H                 17.54101030    2.69078915    0.60661153
 C                  9.75804768   -2.10878785    3.37125619
 C                  4.63698110   -0.96589671    2.13716205
 C                 10.65699540    3.24516380    1.27866133
 C                  6.96763355   -1.71490943    2.31539380
 H                  7.65836144   -2.53586227    2.42483684
 C                  5.98844488    3.01096599    1.46373512
 H                  6.37304720    4.00632530    1.27251305
 C                  3.25296434   -1.22667498    2.14259425
 H                  2.90518196   -2.24469195    2.29088376
 C                 18.09804642    0.96686795    1.78026569
 H                 19.16308733    1.14506573    1.67313191
 C                  4.63607766    2.74509231    1.50091274
 H                  3.92318484    3.54830227    1.34291950
 C                 11.16267530    4.13986100    2.23315328
 H                 11.43699218    3.77246616    3.21778446
 C                  4.15061375    1.42311367    1.72949376
 C                  5.62005102   -1.99044952    2.29740476
 C                  9.21235234   -2.11872976    4.66329484
 H                  8.91229881   -1.18206891    5.12412232
 C                 10.14994722   -3.31879527    2.78079550
 H                 10.58057551   -3.31264468    1.78407418
 C                  2.77057895    1.11683132    1.75056472
 H                  2.05040201    1.91571302    1.60070164
 C                  9.04085258   -3.32477490    5.34696430
 H                  8.61340633   -3.32192527    6.34521406
 C                  9.41652704   -4.53093655    4.74651902
 H                  9.27874315   -5.46907016    5.27571417
 C                 11.32763800    5.49025660    1.91601295
 H                 11.72404325    6.17387860    2.66082481
 C                 10.29818171    3.72303393    0.01010311
 H                  9.89843538    3.03383199   -0.72755172
 C                  2.33323668   -0.19027208    1.95636852
 C                  9.97432156   -4.52471549    3.46311073
 H                 10.27202432   -5.45739171    2.99335109
 C                 10.98531690    5.95869951    0.64327251
 H                 11.11809556    7.00739702    0.39481332
 C                 10.46731222    5.07246381   -0.30781588
 H                 10.19556681    5.43088481   -1.29618519
 C                  5.09055196    0.36936295    1.93698392
 H                  5.29220999   -3.00367418    2.40130877
 H                  1.28475546   -0.40353312    1.96670618

 1 6 1.0 7 1.0
 2 10 1.0 16 1.0
 3 7 1.5 15 1.5 26 1.5
 4 11 1.0 13 1.5 16 1.5
 5 15 1.5 17 1.5 27 1.5
 6 9 1.5 13 1.5
 7 23 1.5
 8 15 1.5 19 1.5 29 1.5
 9 14 1.5 26 1.0
 10 12 1.5 36 1.5
 11 12 1.5 34 1.5
 12 25 1.5
 13 31 1.0
 14 16 1.5 33 1.0
 15
 16
 17 18 1.0 23 2.0
 18
 19 20 1.0 21 2.0
 20
 21 22 1.0 26 1.5
 22
 23 24 1.0
 24
 25 32 1.5 46 1.5
 26
 27 28 1.0 40 1.5
 28
 29 30 1.0 40 1.5
 30
 31 49 1.5 51 1.5
 32 38 1.5 47 1.5
 33 44 1.5 61 1.5
 34 35 1.0 47 2.0
 35
 36 37 1.0 42 2.0
 37
 38 39 1.0 63 1.5
 39
 40 41 1.0
 41
 42 43 1.0 46 1.5
 43
 44 45 1.0 59 1.5
 45
 46 53 1.5
 47 48 1.0
 48
 49 50 1.0 55 1.5
 50
 51 52 1.0 65 1.5
 52
 53 54 1.0 63 1.5
 54
 55 56 1.0 57 1.5
 56
 57 58 1.0 65 1.5
 58
 59 60 1.0 67 1.5
 60
 61 62 1.0 69 1.5
 62
 63 64 1.0
 64
 65 66 1.0
 66
 67 68 1.0 69 1.5
 68
 69 70 1.0
 70
 71 76 1.0 77 1.0
 72 80 1.0 86 1.0
 73 77 1.5 85 1.5 95 1.5
 74 81 1.0 83 1.5 86 1.5
 75 85 1.5 87 1.5 96 1.5
 76 79 1.5 83 1.5
 77 93 1.5
 78 85 1.5 89 1.5 98 1.5
 79 84 1.5 95 1.0
 80 82 1.5 105 1.5
 81 82 1.5 103 1.5
 82 140 1.5
 83 100 1.0
 84 86 1.5 102 1.0
 85
 86
 87 88 1.0 93 2.0
 88
 89 90 1.0 91 2.0
 90
 91 92 1.0 95 1.5
 92
 93 94 1.0
 94
 95
 96 97 1.0 109 1.5
 97
 98 99 1.0 109 1.5
 99
 100 118 1.5 120 1.5
 101 107 1.5 116 1.5 140 1.5
 102 113 1.5 130 1.5
 103 104 1.0 116 2.0
 104
 105 106 1.0 111 2.0
 106
 107 108 1.0 132 1.5
 108
 109 110 1.0
 110
 111 112 1.0 115 1.5
 112
 113 114 1.0 128 1.5
 114
 115 122 1.5 140 1.5
 116 117 1.0
 117
 118 119 1.0 124 1.5
 119
 120 121 1.0 134 1.5
 121
 122 123 1.0 132 1.5
 123
 124 125 1.0 126 1.5
 125
 126 127 1.0 134 1.5
 127
 128 129 1.0 136 1.5
 129
 130 131 1.0 138 1.5
 131
 132 133 1.0
 133
 134 135 1.0
 135
 136 137 1.0 138 1.5
 137
 138 139 1.0
 139
 140



















































