%chk=/oasis/projects/nsf/lhu120/cmw414/rc_slip_x_new/0_6A/dimer/dimer.chk
%mem=110GB
#p b3lyp/6-311g(d,p) nosymm pop=full iop(3/33=1) punch=mo

c47

2 1
 O                  1.86343256   -2.18814168   -0.63312396
 O                 -1.87688744    1.76594132   -0.63317696
 C                  3.69461456   -0.67140268   -0.87047896
 C                 -1.39648944   -0.60712468   -0.87219696
 C                  5.97175156   -1.62878468   -0.73581696
 C                  0.95630456   -1.17504168   -0.77241696
 C                  3.19421256   -1.96292068   -0.63793396
 C                  5.65376956    0.77013232   -1.23999596
 C                  1.38305156    0.18492932   -0.87218096
 C                 -3.20766744    1.54071032   -0.63799196
 C                 -2.81321944   -0.85705968   -1.03609996
 C                 -3.70805744    0.24918032   -0.87049696
 C                 -0.37497644   -1.59266368   -0.78251796
 C                  0.36153156    1.17047132   -0.78252296
 C                  5.10807156   -0.51188368   -0.94441996
 C                 -0.96975044    0.75284632   -0.77244796
 C                  5.39488456   -2.90675768   -0.47207296
 H                  6.04966056   -3.75780568   -0.31297796
 C                  4.74462556    1.84550032   -1.48258496
 H                  5.14791656    2.81613132   -1.75583896
 C                  3.38157356    1.68676032   -1.38711396
 H                  2.74968056    2.53497832   -1.59754396
 C                  4.02720956   -3.07643968   -0.43155996
 H                  3.57365556   -4.04439768   -0.25108496
 C                 -5.12151244    0.08963932   -0.94441896
 C                  2.79978656    0.43484332   -1.03611196
 C                  7.36964356   -1.42936968   -0.80567596
 H                  8.03205756   -2.27390668   -0.64047896
 C                  7.05237556    0.92132132   -1.30766596
 H                  7.47035056    1.89702532   -1.53701096
 C                 -0.64793744   -3.04866968   -0.59509396
 C                 -5.66719544   -1.19239768   -1.23993096
 C                  0.63446856    2.62647732   -0.59506596
 C                 -3.39498944   -2.10900768   -1.38701396
 H                 -2.76308144   -2.95723068   -1.59738596
 C                 -4.04067744    2.65422632   -0.43164996
 H                 -3.58713344    3.62219432   -0.25120396
 C                 -7.06580044   -1.34360768   -1.30758296
 H                 -7.48376544   -2.31932768   -1.53687896
 C                  7.89727656   -0.17032768   -1.08596396
 H                  8.97295756   -0.03707868   -1.13791896
 C                 -5.40835044    2.48452732   -0.47215796
 H                 -6.06313544    3.33557232   -0.31308796
 C                  1.19132356    3.07285032    0.61237504
 H                  1.43075056    2.35253132    1.38925504
 C                 -5.98520444    1.20653832   -0.73585396
 C                 -4.75804044   -2.26777068   -1.48246496
 H                 -5.16132144   -3.23842268   -1.75565596
 C                 -1.20495544   -3.49503768    0.61227204
 H                 -1.44447744   -2.77471768    1.38912204
 C                 -0.33428944   -3.98126668   -1.59421096
 H                  0.10494656   -3.63898068   -2.52632896
 C                 -7.38309444    1.00710232   -0.80569496
 H                 -8.04551744    1.85163832   -0.64052696
 C                 -1.46487044   -4.85334768    0.80924704
 H                 -1.90033044   -5.18805568    1.74603204
 C                 -1.16705344   -5.77762768   -0.19748196
 H                 -1.37357744   -6.83295368   -0.04661296
 C                  1.45120356    4.43116132    0.80938404
 H                  1.88654356    4.76587132    1.74622404
 C                  0.32092856    3.55907532   -1.59421596
 H                 -0.11819244    3.21678732   -2.52638696
 C                 -7.91071344   -0.25195768   -1.08592496
 H                 -8.98639244   -0.38522368   -1.13786596
 C                 -0.59829944   -5.33868768   -1.39838196
 H                 -0.36076744   -6.05187768   -2.18204296
 C                  1.15351056    5.35543932   -0.19738296
 H                  1.36000956    6.41076732   -0.04648696
 C                  0.58490756    4.91649632   -1.39835396
 H                  0.34746656    5.62968632   -2.18204196
 O                 12.83709823   -1.12251236    3.00431531
 O                  8.84066378    2.29076128    1.58909773
 C                 14.56616388    0.32323961    2.21046687
 C                  9.48292438    0.03397994    2.23236619
 C                 16.89981871   -0.36004125    2.66571346
 C                 11.86652601   -0.29550439    2.51166662
 C                 14.14968678   -0.82424531    2.90496186
 C                 16.43011921    1.65953815    1.32005630
 C                 12.20274415    0.95911203    1.91628271
 C                  7.52823474    1.98895844    1.67950057
 C                  8.08903175   -0.35491485    2.18461926
 C                  7.11944533    0.67107341    1.94135690
 C                 10.56658016   -0.77780615    2.66769569
 C                 11.11612151    1.83660774    1.64779205
 C                 15.96677703    0.54086586    2.07012484
 C                  9.81584190    1.36169542    1.82259226
 C                 16.40563622   -1.48875705    3.38497401
 H                 17.11326946   -2.17539783    3.83896207
 C                 15.45506678    2.50634272    0.70849817
 H                 15.79684506    3.33450412    0.09468043
 C                 14.10433086    2.30077587    0.86811829
 H                 13.42056293    2.96754733    0.36719858
 C                 15.05192875   -1.72492978    3.49752046
 H                 14.66135937   -2.58804255    4.02450913
 C                 13.60205354    1.22787248    1.65904844
 C                 18.28216245   -0.10496297    2.51468518
 H                 18.99687833   -0.78280369    2.97189219
 C                 17.81637165    1.87071633    1.18873972
 H                 18.17173422    2.72067753    0.61377544
 C                 10.38877160   -2.07889947    3.37842010
 C                  5.26770502   -0.93600833    2.14432596
 C                 11.28771932    3.27505218    1.28582524
 C                  7.59835747   -1.68502105    2.32255771
 H                  8.28908536   -2.50597389    2.43200075
 C                  6.61916880    3.04085437    1.47089903
 H                  7.00377112    4.03621368    1.27967696
 C                  3.88368826   -1.19678660    2.14975816
 H                  3.53590588   -2.21480357    2.29804767
 C                 18.72877034    0.99675633    1.78742960
 H                 19.79381125    1.17495411    1.68029582
 C                  5.26680158    2.77498069    1.50807665
 H                  4.55390876    3.57819065    1.35008341
 C                 11.79339922    4.16974938    2.24031719
 H                 12.06771610    3.80235454    3.22494837
 C                  4.78133767    1.45300205    1.73665767
 C                  6.25077494   -1.96056114    2.30456867
 C                  9.84307626   -2.08884138    4.67045875
 H                  9.54302273   -1.15218053    5.13128623
 C                 10.78067114   -3.28890689    2.78795941
 H                 11.21129943   -3.28275630    1.79123809
 C                  3.40130287    1.14671970    1.75772863
 H                  2.68112593    1.94560140    1.60786555
 C                  9.67157650   -3.29488652    5.35412821
 H                  9.24413025   -3.29203689    6.35237797
 C                 10.04725096   -4.50104817    4.75368293
 H                  9.90946707   -5.43918178    5.28287808
 C                 11.95836192    5.52014498    1.92317686
 H                 12.35476717    6.20376698    2.66798872
 C                 10.92890563    3.75292231    0.01726702
 H                 10.52915930    3.06372037   -0.72038781
 C                  2.96396060   -0.16038370    1.96353243
 C                 10.60504548   -4.49482711    3.47027464
 H                 10.90274824   -5.42750333    3.00051500
 C                 11.61604082    5.98858789    0.65043642
 H                 11.74881948    7.03728540    0.40197723
 C                 11.09803614    5.10235219   -0.30065197
 H                 10.82629073    5.46077319   -1.28902128
 C                  5.72127588    0.39925133    1.94414783
 H                  5.92293391   -2.97378580    2.40847268
 H                  1.91547938   -0.37364474    1.97387009

 1 6 1.0 7 1.0
 2 10 1.0 16 1.0
 3 7 1.5 15 1.5 26 1.5
 4 11 1.0 13 1.5 16 1.5
 5 15 1.5 17 1.5 27 1.5
 6 9 1.5 13 1.5
 7 23 1.5
 8 15 1.5 19 1.5 29 1.5
 9 14 1.5 26 1.0
 10 12 1.5 36 1.5
 11 12 1.5 34 1.5
 12 25 1.5
 13 31 1.0
 14 16 1.5 33 1.0
 15
 16
 17 18 1.0 23 2.0
 18
 19 20 1.0 21 2.0
 20
 21 22 1.0 26 1.5
 22
 23 24 1.0
 24
 25 32 1.5 46 1.5
 26
 27 28 1.0 40 1.5
 28
 29 30 1.0 40 1.5
 30
 31 49 1.5 51 1.5
 32 38 1.5 47 1.5
 33 44 1.5 61 1.5
 34 35 1.0 47 2.0
 35
 36 37 1.0 42 2.0
 37
 38 39 1.0 63 1.5
 39
 40 41 1.0
 41
 42 43 1.0 46 1.5
 43
 44 45 1.0 59 1.5
 45
 46 53 1.5
 47 48 1.0
 48
 49 50 1.0 55 1.5
 50
 51 52 1.0 65 1.5
 52
 53 54 1.0 63 1.5
 54
 55 56 1.0 57 1.5
 56
 57 58 1.0 65 1.5
 58
 59 60 1.0 67 1.5
 60
 61 62 1.0 69 1.5
 62
 63 64 1.0
 64
 65 66 1.0
 66
 67 68 1.0 69 1.5
 68
 69 70 1.0
 70
 71 76 1.0 77 1.0
 72 80 1.0 86 1.0
 73 77 1.5 85 1.5 95 1.5
 74 81 1.0 83 1.5 86 1.5
 75 85 1.5 87 1.5 96 1.5
 76 79 1.5 83 1.5
 77 93 1.5
 78 85 1.5 89 1.5 98 1.5
 79 84 1.5 95 1.0
 80 82 1.5 105 1.5
 81 82 1.5 103 1.5
 82 140 1.5
 83 100 1.0
 84 86 1.5 102 1.0
 85
 86
 87 88 1.0 93 2.0
 88
 89 90 1.0 91 2.0
 90
 91 92 1.0 95 1.5
 92
 93 94 1.0
 94
 95
 96 97 1.0 109 1.5
 97
 98 99 1.0 109 1.5
 99
 100 118 1.5 120 1.5
 101 107 1.5 116 1.5 140 1.5
 102 113 1.5 130 1.5
 103 104 1.0 116 2.0
 104
 105 106 1.0 111 2.0
 106
 107 108 1.0 132 1.5
 108
 109 110 1.0
 110
 111 112 1.0 115 1.5
 112
 113 114 1.0 128 1.5
 114
 115 122 1.5 140 1.5
 116 117 1.0
 117
 118 119 1.0 124 1.5
 119
 120 121 1.0 134 1.5
 121
 122 123 1.0 132 1.5
 123
 124 125 1.0 126 1.5
 125
 126 127 1.0 134 1.5
 127
 128 129 1.0 136 1.5
 129
 130 131 1.0 138 1.5
 131
 132 133 1.0
 133
 134 135 1.0
 135
 136 137 1.0 138 1.5
 137
 138 139 1.0
 139
 140













