%chk=/oasis/projects/nsf/lhu120/cmw414/pent_stack/2_8A/dimer/dimer.chk
%nprocshared=24
%mem=110GB
#p b3lyp/6-311g(d,p) nosymm pop=full iop(3/33=1) punch=mo

c47

0 1
 C                -8.71269653   -6.57702505    3.64379411
 C                -8.68469653   -5.72102505    2.58779411
 C                -8.06369653   -6.03902505    1.35279411
 C                -8.04869653   -5.14002505    0.26779411
 C                -7.39369653   -5.47302505   -0.95020589
 C                -7.34469653   -4.60902505   -2.03220589
 C                -6.79669653   -6.81702505   -1.08420589
 C                -6.91169653   -7.66102505   -0.02620589
 C                -7.43269653   -7.35702505    1.21879411
 C                -7.55869653   -8.22602505    2.30979411
 C                -8.07069653   -7.90902505    3.51479411
 H                -9.20269653   -6.25802505    4.71079411
 H                -9.09369653   -4.69702505    2.68079411
 H                -8.48269653   -4.12702505    0.40379411
 H                -7.81169653   -3.59102505   -1.88720589
 H                -6.45369653   -8.67202505   -0.11820589
 H                -7.10169653   -9.23202505    2.23079411
 H                -8.08169653   -8.58802505    4.39179411
 C                -6.74469653   -4.92802505   -3.27020589
 C                -6.19669653   -7.13602505   -2.32220589
 C                -6.14669653   -6.27302505   -3.40420589
 C                -6.62969653   -4.08502505   -4.32820589
 H                -5.72869653   -8.15502505   -2.46720589
 C                -5.49269653   -6.60602505   -4.62220589
 C                -6.10769653   -4.38902505   -5.57320589
 H                -7.08769653   -3.07402505   -4.23620589
 C                -5.47769653   -5.70702505   -5.70720589
 H                -5.05869653   -7.61802505   -4.75820589
 C                -5.98269653   -3.52002505   -6.66420589
 C                -4.85669653   -6.02402505   -6.94220589
 C                -5.47069653   -3.83702505   -7.86920589
 H                -6.43969653   -2.51402505   -6.58520589
 C                -4.82869653   -5.16902505   -7.99820589
 H                -4.44769653   -7.04902505   -7.03520589
 H                -5.45869653   -3.15802505   -8.74620589
 H                -4.33869653   -5.48802505   -9.06520589
 C                -6.26025626   -5.57256745    4.54744365
 C                -6.23225626   -4.71656745    3.49144365
 C                -5.61125626   -5.03456745    2.25644365
 C                -5.59625626   -4.13556745    1.17144365
 C                -4.94125626   -4.46856745   -0.04655635
 C                -4.89225626   -3.60456745   -1.12855635
 C                -4.34425626   -5.81256745   -0.18055635
 C                -4.45925626   -6.65656745    0.87744365
 C                -4.98025626   -6.35256745    2.12244365
 C                -5.10625626   -7.22156745    3.21344365
 C                -5.61825626   -6.90456745    4.41844365
 H                -6.75025626   -5.25356745    5.61444365
 H                -6.64125626   -3.69256745    3.58444365
 H                -6.03025626   -3.12256745    1.30744365
 H                -5.35925626   -2.58656745   -0.98355635
 H                -4.00125626   -7.66756745    0.78544365
 H                -4.64925626   -8.22756745    3.13444365
 H                -5.62925626   -7.58356745    5.29544365
 C                -4.29225626   -3.92356745   -2.36655635
 C                -3.74425626   -6.13156745   -1.41855635
 C                -3.69425626   -5.26856745   -2.50055635
 C                -4.17725626   -3.08056745   -3.42455635
 H                -3.27625626   -7.15056745   -1.56355635
 C                -3.04025626   -5.60156745   -3.71855635
 C                -3.65525626   -3.38456745   -4.66955635
 H                -4.63525626   -2.06956745   -3.33255635
 C                -3.02525626   -4.70256745   -4.80355635
 H                -2.60625626   -6.61356745   -3.85455635
 C                -3.53025626   -2.51556745   -5.76055635
 C                -2.40425626   -5.01956745   -6.03855635
 C                -3.01825626   -2.83256745   -6.96555635
 H                -3.98725626   -1.50956745   -5.68155635
 C                -2.37625626   -4.16456745   -7.09455635
 H                -1.99525626   -6.04456745   -6.13155635
 H                -3.00625626   -2.15356745   -7.84255635
 H                -1.88625626   -4.48356745   -8.16155635

 1 2 2.0 11 1.0 12 1.0
 2 3 1.5 13 1.0
 3 4 1.5 9 1.0
 4 5 1.5 14 1.0
 5 6 2.0 7 1.0
 6 15 1.0 19 1.5
 7 8 2.0 20 1.5
 8 9 2.0 16 1.0
 9 10 1.5
 10 11 2.0 17 1.0
 11 18 1.0
 12
 13
 14
 15
 16
 17
 18
 19 21 1.0 22 2.0
 20 21 2.0 23 1.0
 21 24 1.5
 22 25 2.0 26 1.0
 23
 24 27 1.5 28 1.0
 25 27 1.0 29 1.5
 26
 27 30 1.5
 28
 29 31 2.0 32 1.0
 30 33 2.0 34 1.0
 31 33 1.0 35 1.0
 32
 33 36 1.0
 34
 35
 36
 37 38 2.0 47 1.0 48 1.0
 38 39 1.5 49 1.0
 39 40 1.5 45 1.0
 40 41 1.5 50 1.0
 41 42 2.0 43 1.0
 42 51 1.0 55 1.5
 43 44 2.0 56 1.5
 44 45 2.0 52 1.0
 45 46 1.5
 46 47 2.0 53 1.0
 47 54 1.0
 48
 49
 50
 51
 52
 53
 54
 55 57 1.0 58 2.0
 56 57 2.0 59 1.0
 57 60 1.5
 58 61 2.0 62 1.0
 59
 60 63 1.5 64 1.0
 61 63 1.0 65 1.5
 62
 63 66 1.5
 64
 65 67 2.0 68 1.0
 66 69 2.0 70 1.0
 67 69 1.0 71 1.0
 68
 69 72 1.0
 70
 71
 72


