%chk=/oasis/projects/nsf/lhu120/cmw414/rc_slip_x_new/3_0A/dimer/dimer.chk
%mem=110GB
#p b3lyp/6-311g(d,p) nosymm pop=full iop(3/33=1) punch=mo

c47

2 1
 O                  1.86343256   -2.18814168   -0.63312396
 O                 -1.87688744    1.76594132   -0.63317696
 C                  3.69461456   -0.67140268   -0.87047896
 C                 -1.39648944   -0.60712468   -0.87219696
 C                  5.97175156   -1.62878468   -0.73581696
 C                  0.95630456   -1.17504168   -0.77241696
 C                  3.19421256   -1.96292068   -0.63793396
 C                  5.65376956    0.77013232   -1.23999596
 C                  1.38305156    0.18492932   -0.87218096
 C                 -3.20766744    1.54071032   -0.63799196
 C                 -2.81321944   -0.85705968   -1.03609996
 C                 -3.70805744    0.24918032   -0.87049696
 C                 -0.37497644   -1.59266368   -0.78251796
 C                  0.36153156    1.17047132   -0.78252296
 C                  5.10807156   -0.51188368   -0.94441996
 C                 -0.96975044    0.75284632   -0.77244796
 C                  5.39488456   -2.90675768   -0.47207296
 H                  6.04966056   -3.75780568   -0.31297796
 C                  4.74462556    1.84550032   -1.48258496
 H                  5.14791656    2.81613132   -1.75583896
 C                  3.38157356    1.68676032   -1.38711396
 H                  2.74968056    2.53497832   -1.59754396
 C                  4.02720956   -3.07643968   -0.43155996
 H                  3.57365556   -4.04439768   -0.25108496
 C                 -5.12151244    0.08963932   -0.94441896
 C                  2.79978656    0.43484332   -1.03611196
 C                  7.36964356   -1.42936968   -0.80567596
 H                  8.03205756   -2.27390668   -0.64047896
 C                  7.05237556    0.92132132   -1.30766596
 H                  7.47035056    1.89702532   -1.53701096
 C                 -0.64793744   -3.04866968   -0.59509396
 C                 -5.66719544   -1.19239768   -1.23993096
 C                  0.63446856    2.62647732   -0.59506596
 C                 -3.39498944   -2.10900768   -1.38701396
 H                 -2.76308144   -2.95723068   -1.59738596
 C                 -4.04067744    2.65422632   -0.43164996
 H                 -3.58713344    3.62219432   -0.25120396
 C                 -7.06580044   -1.34360768   -1.30758296
 H                 -7.48376544   -2.31932768   -1.53687896
 C                  7.89727656   -0.17032768   -1.08596396
 H                  8.97295756   -0.03707868   -1.13791896
 C                 -5.40835044    2.48452732   -0.47215796
 H                 -6.06313544    3.33557232   -0.31308796
 C                  1.19132356    3.07285032    0.61237504
 H                  1.43075056    2.35253132    1.38925504
 C                 -5.98520444    1.20653832   -0.73585396
 C                 -4.75804044   -2.26777068   -1.48246496
 H                 -5.16132144   -3.23842268   -1.75565596
 C                 -1.20495544   -3.49503768    0.61227204
 H                 -1.44447744   -2.77471768    1.38912204
 C                 -0.33428944   -3.98126668   -1.59421096
 H                  0.10494656   -3.63898068   -2.52632896
 C                 -7.38309444    1.00710232   -0.80569496
 H                 -8.04551744    1.85163832   -0.64052696
 C                 -1.46487044   -4.85334768    0.80924704
 H                 -1.90033044   -5.18805568    1.74603204
 C                 -1.16705344   -5.77762768   -0.19748196
 H                 -1.37357744   -6.83295368   -0.04661296
 C                  1.45120356    4.43116132    0.80938404
 H                  1.88654356    4.76587132    1.74622404
 C                  0.32092856    3.55907532   -1.59421596
 H                 -0.11819244    3.21678732   -2.52638696
 C                 -7.91071344   -0.25195768   -1.08592496
 H                 -8.98639244   -0.38522368   -1.13786596
 C                 -0.59829944   -5.33868768   -1.39838196
 H                 -0.36076744   -6.05187768   -2.18204296
 C                  1.15351056    5.35543932   -0.19738296
 H                  1.36000956    6.41076732   -0.04648696
 C                  0.58490756    4.91649632   -1.39835396
 H                  0.34746656    5.62968632   -2.18204196
 O                 15.18895880   -0.64464740    2.98439207
 O                 11.19252435    2.76862624    1.56917449
 C                 16.91802445    0.80110457    2.19054363
 C                 11.83478495    0.51184490    2.21244295
 C                 19.25167928    0.11782371    2.64579022
 C                 14.21838658    0.18236057    2.49174338
 C                 16.50154735   -0.34638035    2.88503862
 C                 18.78197978    2.13740311    1.30013306
 C                 14.55460472    1.43697699    1.89635947
 C                  9.88009531    2.46682340    1.65957733
 C                 10.44089232    0.12295011    2.16469602
 C                  9.47130590    1.14893837    1.92143366
 C                 12.91844073   -0.29994119    2.64777245
 C                 13.46798208    2.31447270    1.62786881
 C                 18.31863760    1.01873082    2.05020160
 C                 12.16770247    1.83956038    1.80266902
 C                 18.75749679   -1.01089209    3.36505077
 H                 19.46513003   -1.69753287    3.81903883
 C                 17.80692735    2.98420768    0.68857493
 H                 18.14870563    3.81236908    0.07475719
 C                 16.45619143    2.77864083    0.84819505
 H                 15.77242350    3.44541229    0.34727534
 C                 17.40378932   -1.24706482    3.47759722
 H                 17.01321994   -2.11017759    4.00458589
 C                 15.95391411    1.70573744    1.63912520
 C                 20.63402302    0.37290199    2.49476194
 H                 21.34873890   -0.30493873    2.95196895
 C                 20.16823222    2.34858129    1.16881648
 H                 20.52359479    3.19854249    0.59385220
 C                 12.74063217   -1.60103451    3.35849686
 C                  7.61956559   -0.45814337    2.12440272
 C                 13.63957989    3.75291714    1.26590200
 C                  9.95021804   -1.20715609    2.30263447
 H                 10.64094593   -2.02810893    2.41207751
 C                  8.97102937    3.51871933    1.45097579
 H                  9.35563169    4.51407864    1.25975372
 C                  6.23554883   -0.71892164    2.12983492
 H                  5.88776645   -1.73693861    2.27812443
 C                 21.08063091    1.47462129    1.76750636
 H                 22.14567182    1.65281907    1.66037258
 C                  7.61866215    3.25284565    1.48815341
 H                  6.90576933    4.05605561    1.33016017
 C                 14.14525979    4.64761434    2.22039395
 H                 14.41957667    4.28021950    3.20502513
 C                  7.13319824    1.93086701    1.71673443
 C                  8.60263551   -1.48269618    2.28464543
 C                 12.19493683   -1.61097642    4.65053551
 H                 11.89488330   -0.67431557    5.11136299
 C                 13.13253171   -2.81104193    2.76803617
 H                 13.56316000   -2.80489134    1.77131485
 C                  5.75316344    1.62458466    1.73780539
 H                  5.03298650    2.42346636    1.58794231
 C                 12.02343707   -2.81702156    5.33420497
 H                 11.59599082   -2.81417193    6.33245473
 C                 12.39911153   -4.02318321    4.73375969
 H                 12.26132764   -4.96131682    5.26295484
 C                 14.31022249    5.99800994    1.90325362
 H                 14.70662774    6.68163194    2.64806548
 C                 13.28076620    4.23078727   -0.00265622
 H                 12.88101987    3.54158533   -0.74031105
 C                  5.31582117    0.31748126    1.94360919
 C                 12.95690605   -4.01696215    3.45035140
 H                 13.25460881   -4.94963837    2.98059176
 C                 13.96790139    6.46645285    0.63051318
 H                 14.10068005    7.51515036    0.38205399
 C                 13.44989671    5.58021715   -0.32057521
 H                 13.17815130    5.93863815   -1.30894452
 C                  8.07313645    0.87711629    1.92422459
 H                  8.27479448   -2.49592084    2.38854944
 H                  4.26733995    0.10422022    1.95394685

 1 6 1.0 7 1.0
 2 10 1.0 16 1.0
 3 7 1.5 15 1.5 26 1.5
 4 11 1.0 13 1.5 16 1.5
 5 15 1.5 17 1.5 27 1.5
 6 9 1.5 13 1.5
 7 23 1.5
 8 15 1.5 19 1.5 29 1.5
 9 14 1.5 26 1.0
 10 12 1.5 36 1.5
 11 12 1.5 34 1.5
 12 25 1.5
 13 31 1.0
 14 16 1.5 33 1.0
 15
 16
 17 18 1.0 23 2.0
 18
 19 20 1.0 21 2.0
 20
 21 22 1.0 26 1.5
 22
 23 24 1.0
 24
 25 32 1.5 46 1.5
 26
 27 28 1.0 40 1.5
 28
 29 30 1.0 40 1.5
 30
 31 49 1.5 51 1.5
 32 38 1.5 47 1.5
 33 44 1.5 61 1.5
 34 35 1.0 47 2.0
 35
 36 37 1.0 42 2.0
 37
 38 39 1.0 63 1.5
 39
 40 41 1.0
 41
 42 43 1.0 46 1.5
 43
 44 45 1.0 59 1.5
 45
 46 53 1.5
 47 48 1.0
 48
 49 50 1.0 55 1.5
 50
 51 52 1.0 65 1.5
 52
 53 54 1.0 63 1.5
 54
 55 56 1.0 57 1.5
 56
 57 58 1.0 65 1.5
 58
 59 60 1.0 67 1.5
 60
 61 62 1.0 69 1.5
 62
 63 64 1.0
 64
 65 66 1.0
 66
 67 68 1.0 69 1.5
 68
 69 70 1.0
 70
 71 76 1.0 77 1.0
 72 80 1.0 86 1.0
 73 77 1.5 85 1.5 95 1.5
 74 81 1.0 83 1.5 86 1.5
 75 85 1.5 87 1.5 96 1.5
 76 79 1.5 83 1.5
 77 93 1.5
 78 85 1.5 89 1.5 98 1.5
 79 84 1.5 95 1.0
 80 82 1.5 105 1.5
 81 82 1.5 103 1.5
 82 140 1.5
 83 100 1.0
 84 86 1.5 102 1.0
 85
 86
 87 88 1.0 93 2.0
 88
 89 90 1.0 91 2.0
 90
 91 92 1.0 95 1.5
 92
 93 94 1.0
 94
 95
 96 97 1.0 109 1.5
 97
 98 99 1.0 109 1.5
 99
 100 118 1.5 120 1.5
 101 107 1.5 116 1.5 140 1.5
 102 113 1.5 130 1.5
 103 104 1.0 116 2.0
 104
 105 106 1.0 111 2.0
 106
 107 108 1.0 132 1.5
 108
 109 110 1.0
 110
 111 112 1.0 115 1.5
 112
 113 114 1.0 128 1.5
 114
 115 122 1.5 140 1.5
 116 117 1.0
 117
 118 119 1.0 124 1.5
 119
 120 121 1.0 134 1.5
 121
 122 123 1.0 132 1.5
 123
 124 125 1.0 126 1.5
 125
 126 127 1.0 134 1.5
 127
 128 129 1.0 136 1.5
 129
 130 131 1.0 138 1.5
 131
 132 133 1.0
 133
 134 135 1.0
 135
 136 137 1.0 138 1.5
 137
 138 139 1.0
 139
 140





































