%chk=/oasis/projects/nsf/lhu120/cmw414/pent_slip_x/5_0A/dimer/dimer.chk
%nprocshared=24
%mem=110GB
#p b3lyp/6-311g(d,p) nosymm pop=full iop(3/33=1) punch=mo

c47

0 1
 C                 -7.38077899   -5.48056740   -1.04915553
 C                 -7.35277899   -4.62456740   -2.10515553
 C                 -6.73177899   -4.94256740   -3.34015553
 C                 -6.71677899   -4.04356740   -4.42515553
 C                 -6.06177899   -4.37656740   -5.64315553
 C                 -6.01277899   -3.51256740   -6.72515553
 C                 -5.46477899   -5.72056740   -5.77715553
 C                 -5.57977899   -6.56456740   -4.71915553
 C                 -6.10077899   -6.26056740   -3.47415553
 C                 -6.22677899   -7.12956740   -2.38315553
 C                 -6.73877899   -6.81256740   -1.17815553
 H                 -7.87077899   -5.16156740    0.01784447
 H                 -7.76177899   -3.60056740   -2.01215553
 H                 -7.15077899   -3.03056740   -4.28915553
 H                 -6.47977899   -2.49456740   -6.58015553
 H                 -5.12177899   -7.57556740   -4.81115553
 H                 -5.76977899   -8.13556740   -2.46215553
 H                 -6.74977899   -7.49156740   -0.30115553
 C                 -5.41277899   -3.83156740   -7.96315553
 C                 -4.86477899   -6.03956740   -7.01515553
 C                 -4.81477899   -5.17656740   -8.09715553
 C                 -5.29777899   -2.98856740   -9.02115553
 H                 -4.39677899   -7.05856740   -7.16015553
 C                 -4.16077899   -5.50956740   -9.31515553
 C                 -4.77577899   -3.29256740  -10.26615553
 H                 -5.75577899   -1.97756740   -8.92915553
 C                 -4.14577899   -4.61056740  -10.40015553
 H                 -3.72677899   -6.52156740   -9.45115553
 C                 -4.65077899   -2.42356740  -11.35715553
 C                 -3.52477899   -4.92756740  -11.63515553
 C                 -4.13877899   -2.74056740  -12.56215553
 H                 -5.10777899   -1.41756740  -11.27815553
 C                 -3.49677899   -4.07256740  -12.69115553
 H                 -3.11577899   -5.95256740  -11.72815553
 H                 -4.12677899   -2.06156740  -13.43915553
 H                 -3.00677899   -4.39156740  -13.75815553
 C                 -5.55955519   -5.28557798    4.80563065
 C                 -5.53155519   -4.42957798    3.74963065
 C                 -4.91055519   -4.74757798    2.51463065
 C                 -4.89555519   -3.84857798    1.42963065
 C                 -4.24055519   -4.18157798    0.21163065
 C                 -4.19155519   -3.31757798   -0.87036935
 C                 -3.64355519   -5.52557798    0.07763065
 C                 -3.75855519   -6.36957798    1.13563065
 C                 -4.27955519   -6.06557798    2.38063065
 C                 -4.40555519   -6.93457798    3.47163065
 C                 -4.91755519   -6.61757798    4.67663065
 H                 -6.04955519   -4.96657798    5.87263065
 H                 -5.94055519   -3.40557798    3.84263065
 H                 -5.32955519   -2.83557798    1.56563065
 H                 -4.65855519   -2.29957798   -0.72536935
 H                 -3.30055519   -7.38057798    1.04363065
 H                 -3.94855519   -7.94057798    3.39263065
 H                 -4.92855519   -7.29657798    5.55363065
 C                 -3.59155519   -3.63657798   -2.10836935
 C                 -3.04355519   -5.84457798   -1.16036935
 C                 -2.99355519   -4.98157798   -2.24236935
 C                 -3.47655519   -2.79357798   -3.16636935
 H                 -2.57555519   -6.86357798   -1.30536935
 C                 -2.33955519   -5.31457798   -3.46036935
 C                 -2.95455519   -3.09757798   -4.41136935
 H                 -3.93455519   -1.78257798   -3.07436935
 C                 -2.32455519   -4.41557798   -4.54536935
 H                 -1.90555519   -6.32657798   -3.59636935
 C                 -2.82955519   -2.22857798   -5.50236935
 C                 -1.70355519   -4.73257798   -5.78036935
 C                 -2.31755519   -2.54557798   -6.70736935
 H                 -3.28655519   -1.22257798   -5.42336935
 C                 -1.67555519   -3.87757798   -6.83636935
 H                 -1.29455519   -5.75757798   -5.87336935
 H                 -2.30555519   -1.86657798   -7.58436935
 H                 -1.18555519   -4.19657798   -7.90336935

 1 2 2.0 11 1.0 12 1.0
 2 3 1.5 13 1.0
 3 4 1.5 9 1.0
 4 5 1.5 14 1.0
 5 6 2.0 7 1.0
 6 15 1.0 19 1.5
 7 8 2.0 20 1.5
 8 9 2.0 16 1.0
 9 10 1.5
 10 11 2.0 17 1.0
 11 18 1.0
 12
 13
 14
 15
 16
 17
 18
 19 21 1.0 22 2.0
 20 21 2.0 23 1.0
 21 24 1.5
 22 25 2.0 26 1.0
 23
 24 27 1.5 28 1.0
 25 27 1.0 29 1.5
 26
 27 30 1.5
 28
 29 31 2.0 32 1.0
 30 33 2.0 34 1.0
 31 33 1.0 35 1.0
 32
 33 36 1.0
 34
 35
 36
 37 38 2.0 47 1.0 48 1.0
 38 39 1.5 49 1.0
 39 40 1.5 45 1.0
 40 41 1.5 50 1.0
 41 42 2.0 43 1.0
 42 51 1.0 55 1.5
 43 44 2.0 56 1.5
 44 45 2.0 52 1.0
 45 46 1.5
 46 47 2.0 53 1.0
 47 54 1.0
 48
 49
 50
 51
 52
 53
 54
 55 57 1.0 58 2.0
 56 57 2.0 59 1.0
 57 60 1.5
 58 61 2.0 62 1.0
 59
 60 63 1.5 64 1.0
 61 63 1.0 65 1.5
 62
 63 66 1.5
 64
 65 67 2.0 68 1.0
 66 69 2.0 70 1.0
 67 69 1.0 71 1.0
 68
 69 72 1.0
 70
 71
 72

